10
Lattice="16.2900001489832 0.0 0.0 0.0 16.2900001489832 0.0 0.0 0.0 28.96881123518865" Properties=species:S:1:pos:R:3:initial_magmoms:R:1 pbc="T T T"
H       -1.11383039      -0.11313405      -1.03146349       0.00000000
Si       1.29388050       1.65187280      -0.98160817       0.00000000
Si      -0.95844008       1.08396137       1.81840125       0.00000000
Si       1.03537449      -2.09616464       0.17027867       0.00000000
Si      -2.06526414       2.93953053       0.78517066       0.00000000
Si       1.67044015      -2.71554302      -1.95319313       0.00000000
Si      -0.06109076       2.78519907      -2.50354260       0.00000000
Si      -2.08932447      -0.50000526       3.14332459       0.00000000
Si      -3.73635751       0.01790271      -0.99038572       0.00000000
Si       2.39138668      -2.27724428       2.07414313       0.00000000
