10
Lattice="16.2900001489832 0.0 0.0 0.0 16.2900001489832 0.0 0.0 0.0 28.96881123518865" Properties=species:S:1:pos:R:3:initial_magmoms:R:1 pbc="T T T"
Si      -0.02410920       0.97215463       2.12448571       0.00000000
Si      -0.89342506       1.79476706      -1.23030541       0.00000000
Si       1.88499737      -0.95649994      -1.10840466       0.00000000
Si      -1.65268568      -1.78373873       0.10735841       0.00000000
H        2.43937865       2.06435027       0.71538479       0.00000000
Si      -2.20120256       0.45484938      -2.61678169       0.00000000
Si       0.62723017      -2.31089942      -2.57347331       0.00000000
Si      -3.44315217      -0.89445133      -1.16179417       0.00000000
Si       1.28756161      -0.22007790       3.52524361       0.00000000
Si      -0.74163484      -3.57938218      -1.16295293       0.00000000
