10
Lattice="16.2900001489832 0.0 0.0 0.0 16.2900001489832 0.0 0.0 0.0 28.96881123518865" Properties=species:S:1:pos:R:3:initial_magmoms:R:1 pbc="T T T"
Si      -1.30513852      -1.36032904      -1.39806380       0.00000000
Si       1.35531172      -1.32033709       1.38931522       0.00000000
Si       1.34791606       1.32973642      -1.39276251       0.00000000
Si      -1.37020078       1.32781420       1.38273930       0.00000000
Si      -2.67587525      -2.67685916      -0.00292585       0.00000000
Si       2.67729410      -2.68857656       0.01700469       0.00000000
Si      -2.68614283       0.02376711      -2.68697312       0.00000000
Si       0.01826109       2.71200809       2.66559413       0.00000000
Si       2.71428869       2.68198562      -0.05631537       0.00000000
Si      -0.00636939       2.75177199      -2.66527548       0.00000000
