10
Lattice="16.2900001489832 0.0 0.0 0.0 16.2900001489832 0.0 0.0 0.0 28.96881123518865" Properties=species:S:1:pos:R:3:initial_magmoms:R:1 pbc="T T T"
Si       1.25415082       1.34943103       1.49165913       0.00000000
Si      -1.39686751      -1.28354613       1.42326377       0.00000000
Si      -1.49832163       1.41134932      -1.24388309       0.00000000
Si       1.40468671      -1.55534315      -1.24818786       0.00000000
Si      -0.74202580      -0.50898105      -3.32417399       0.00000000
H        1.93414430       0.79845436      -2.79940397       0.00000000
Si       2.65743659       2.59810841       0.09894297       0.00000000
Si      -0.10932219      -2.65004093      -2.69468172       0.00000000
Si      -0.13942611       2.83509534      -2.54650625       0.00000000
Si      -2.81792568      -2.59815728       0.06865029       0.00000000
