10
Lattice="16.2900001489832 0.0 0.0 0.0 16.2900001489832 0.0 0.0 0.0 28.96881123518865" Properties=species:S:1:pos:R:3:initial_magmoms:R:1 pbc="T T T"
H       -1.38344455       1.89165346      -0.21109573       0.00000000
Si       1.85735324      -1.39791740       0.48014936       0.00000000
Si      -1.91290214      -0.46214405       1.34012038       0.00000000
Si       0.02213811      -1.51307060      -1.97057442       0.00000000
Si       0.53854740       2.13111646       1.24795321       0.00000000
H        2.64591956       0.57757173      -0.97468462       0.00000000
H        2.58030344      -2.07479867      -0.67227920       0.00000000
Si      -0.68530402      -1.68108566       2.90458103       0.00000000
Si      -2.46741374       2.19808465      -1.21515472       0.00000000
Si       1.09529074       3.28860242      -0.71741261       0.00000000
