10
Lattice="16.2900001489832 0.0 0.0 0.0 16.2900001489832 0.0 0.0 0.0 28.96881123518865" Properties=species:S:1:pos:R:3:initial_magmoms:R:1 pbc="T T T"
Si       1.22759812      -1.21894162       1.56446065       0.00000000
Si      -1.51400890      -1.09469778      -1.44649386       0.00000000
Si       1.91290214       0.46214405      -1.34012038       0.00000000
Si      -1.40468671       1.55534315       1.24818786       0.00000000
H        0.52945758       2.35379751      -1.55121611       0.00000000
Si      -2.14671251       1.04636210      -2.07598613       0.00000000
Si       2.45144954       2.59326051      -0.09216717       0.00000000
Si       2.64531683      -2.59253072       0.31024728       0.00000000
Si      -0.55451161       2.66022870      -2.55527511       0.00000000
Si      -2.86326075      -2.43542996      -0.01542300       0.00000000
