10
Lattice="16.2900001489832 0.0 0.0 0.0 16.2900001489832 0.0 0.0 0.0 28.96881123518865" Properties=species:S:1:pos:R:3:initial_magmoms:R:1 pbc="T T T"
Si       1.34460919       1.32925750      -1.37787254       0.00000000
Si      -1.32198238       1.36823947       1.37231053       0.00000000
Si       1.38665368      -1.34789000       1.33554910       0.00000000
Si      -1.38676771      -1.32270566      -1.36402545       0.00000000
Si      -0.01614339      -2.74619103      -2.59479436       0.00000000
Si       0.01956429      -2.70186594       2.66321869       0.00000000
Si      -2.67729410       2.68857656      -0.01700469       0.00000000
Si      -2.66794364       0.01191288       2.72990490       0.00000000
Si       2.71726976       2.68945622      -0.02769418       0.00000000
Si      -0.01469358       2.62330253      -2.79375216       0.00000000
