10
Lattice="16.2900001489832 0.0 0.0 0.0 16.2900001489832 0.0 0.0 0.0 28.96881123518865" Properties=species:S:1:pos:R:3:initial_magmoms:R:1 pbc="T T T"
Si      -0.86143476       0.27857529      -2.11593991       0.00000000
Si       0.82782034       2.03056481       0.80770839       0.00000000
Si       2.16834074      -0.90420904      -0.45327499       0.00000000
Si      -1.77245464      -1.07351101       1.28326040       0.00000000
H       -2.18824061       1.86344570       0.31379016       0.00000000
H       -2.21845856       1.59905899       1.06190971       0.00000000
Si       1.71526697       0.89399521       2.70195796       0.00000000
Si      -1.72252579      -1.88401997      -2.22011176       0.00000000
Si       3.35008251      -0.22208157       1.46121581       0.00000000
Si       0.80810944      -0.15949539      -3.70641455       0.00000000
