10
Lattice="16.2900001489832 0.0 0.0 0.0 16.2900001489832 0.0 0.0 0.0 28.96881123518865" Properties=species:S:1:pos:R:3:initial_magmoms:R:1 pbc="T T T"
Si      -1.32055310      -1.33304329      -1.40377065       0.00000000
Si       1.37708168      -1.32735808       1.36958746       0.00000000
Si       1.36484789       1.34237746      -1.37089105       0.00000000
Si      -1.39838900       1.35014779       1.33059544       0.00000000
Si       0.06360919       2.68478750       2.56996809       0.00000000
Si      -2.68160444      -2.69452404      -0.06234088       0.00000000
Si      -0.01515296      -2.63186618       2.74743103       0.00000000
Si       0.00503035       2.70896186      -2.69256410       0.00000000
Si       2.74439913      -2.66210042      -0.00672076       0.00000000
Si       0.05917343      -2.66229590      -2.75655620       0.00000000
