10
Lattice="16.2900001489832 0.0 0.0 0.0 16.2900001489832 0.0 0.0 0.0 28.96881123518865" Properties=species:S:1:pos:R:3:initial_magmoms:R:1 pbc="T T T"
Si      -1.00343143       1.74030959      -1.14771533       0.00000000
Si       1.38681658       1.19765710       1.45694001       0.00000000
Si       0.98960122      -1.73020979      -1.25695672       0.00000000
Si      -1.35889552      -1.42374601       1.30262315       0.00000000
H        2.07357041      -2.03664098      -0.25289772       0.00000000
Si      -0.60259969      -3.34407639      -0.77766774       0.00000000
H        0.73472788       0.90085330      -3.38717825       0.00000000
Si       0.80865190       3.23418405      -1.42341151       0.00000000
Si       2.51693534       2.71997390       0.13288834       0.00000000
Si      -2.57966813      -0.01894527       2.79266003       0.00000000
