10
Lattice="16.2900001489832 0.0 0.0 0.0 16.2900001489832 0.0 0.0 0.0 28.96881123518865" Properties=species:S:1:pos:R:3:initial_magmoms:R:1 pbc="T T T"
Si       1.71572798      -1.04661622      -1.12984998       0.00000000
Si      -1.13011876      -1.52231680       1.32405167       0.00000000
Si       1.44985888       1.36234900       1.24923103       0.00000000
Si      -1.70828345       0.51421014      -1.55629985       0.00000000
H        2.90629893      -0.20815362      -0.69288443       0.00000000
Si      -2.46632231      -0.04750164       2.61746274       0.00000000
Si      -1.00914922      -0.51505722      -3.50106305       0.00000000
Si       1.26042247      -0.80839126      -3.38368143       0.00000000
Si      -2.51693534      -2.71997390      -0.13288834       0.00000000
Si       0.15312600       2.64256382       2.70054819       0.00000000
