10
Lattice="16.2900001489832 0.0 0.0 0.0 16.2900001489832 0.0 0.0 0.0 28.96881123518865" Properties=species:S:1:pos:R:3:initial_magmoms:R:1 pbc="T T T"
Si       1.37523439       1.34785090      -1.32419333       0.00000000
Si       1.37373571      -1.38282553       1.29687574       0.00000000
Si      -1.38406357      -1.32527296      -1.35553758       0.00000000
Si      -1.35705475       1.39649284       1.31486537       0.00000000
Si      -0.03660363       2.71204067      -2.58830535       0.00000000
Si       0.00785178      -2.72201015       2.64079683       0.00000000
Si      -2.72044631       0.03222162       2.64783625       0.00000000
Si       2.74743885      -0.01016496       2.62222782       0.00000000
Si      -0.04712697      -2.74603791      -2.65612133       0.00000000
Si       2.69565293      -0.01589904      -2.71339267       0.00000000
