10
Lattice="16.2900001489832 0.0 0.0 0.0 16.2900001489832 0.0 0.0 0.0 28.96881123518865" Properties=species:S:1:pos:R:3:initial_magmoms:R:1 pbc="T T T"
Si      -1.46465020       1.32639697       1.22503309       0.00000000
Si      -1.34695495      -1.30512223      -1.40188768       0.00000000
Si       1.38165265       1.31730715      -1.37758285       0.00000000
Si       1.20850624      -1.27464364       1.57303542       0.00000000
Si       2.58626558      -2.56694564       0.09275813       0.00000000
Si      -2.72940582      -2.59074533      -0.02500008       0.00000000
Si       2.35525709       0.26818227       2.96377011       0.00000000
Si      -0.00237834      -2.65181654      -2.75748320       0.00000000
Si       2.45799812       2.93666349      -0.07442088       0.00000000
Si      -2.76185550       2.66007557      -0.17529028       0.00000000
