10
Lattice="16.2900001489832 0.0 0.0 0.0 16.2900001489832 0.0 0.0 0.0 28.96881123518865" Properties=species:S:1:pos:R:3:initial_magmoms:R:1 pbc="T T T"
Si      -1.26555382      -1.27004986      -1.53210249       0.00000000
Si       1.05339286      -1.16237296       1.78398630       0.00000000
Si      -1.57591090       1.24618501       1.31269271       0.00000000
Si       1.43355259       1.39349548      -1.35828962       0.00000000
H        1.69611482      -2.22034331      -0.49278845       0.00000000
Si      -0.09358605       2.16365411       2.87191001       0.00000000
Si       1.47018880       0.47662911       3.38491869       0.00000000
Si      -2.78985801      -2.47194236      -0.20055108       0.00000000
Si      -2.50993064       2.78343975      -0.15814074       0.00000000
Si      -2.50435946       0.07739379      -2.95632512       0.00000000
