10
Lattice="16.2900001489832 0.0 0.0 0.0 16.2900001489832 0.0 0.0 0.0 28.96881123518865" Properties=species:S:1:pos:R:3:initial_magmoms:R:1 pbc="T T T"
Si       0.35846145      -1.02097576       1.06506731       0.00000000
Si      -0.12033423       2.03758580      -1.18143503       0.00000000
Si      -2.11155869       0.76038463      -0.77824711       0.00000000
Si      -2.09106587      -1.58058613      -0.58215723       0.00000000
Si       1.57828924       0.67671919      -2.26449197       0.00000000
Si       1.96740848      -2.31585158       0.05246252       0.00000000
Si       1.01846710       0.08884566       2.99598343       0.00000000
Si       3.08071596      -0.55532611      -0.91396599       0.00000000
Si      -1.21404484      -2.77702149       1.33114584       0.00000000
Si      -0.75688228      -2.45019521      -2.35044244       0.00000000
