10
Lattice="16.2900001489832 0.0 0.0 0.0 16.2900001489832 0.0 0.0 0.0 28.96881123518865" Properties=species:S:1:pos:R:3:initial_magmoms:R:1 pbc="T T T"
Si       0.62332057      -1.22508946       1.83653573       0.00000000
Si       0.36758385       2.25504101       0.21920699       0.00000000
Si      -2.18914796      -0.71110738       0.07589829       0.00000000
Si       0.95013055      -0.29504122      -2.08207537       0.00000000
H        2.04061574       0.77037040      -2.09705225       0.00000000
Si      -2.54844020       0.06099953       2.26512929       0.00000000
Si      -0.82790668       2.94270708      -1.64467529       0.00000000
Si      -0.49124124      -3.22592502       1.40290159       0.00000000
Si      -1.99371683      -2.99237529      -0.38140337       0.00000000
Si      -0.52918065      -0.13834446       3.62159387       0.00000000
