10
Lattice="16.2900001489832 0.0 0.0 0.0 16.2900001489832 0.0 0.0 0.0 28.96881123518865" Properties=species:S:1:pos:R:3:initial_magmoms:R:1 pbc="T T T"
Si       1.71761762       1.09939582      -1.08143469       0.00000000
Si      -0.97130755      -1.63444088      -1.34699178       0.00000000
Si       1.03537612      -1.53520219       1.47897369       0.00000000
Si      -1.61705944       1.81693775       0.03009859       0.00000000
Si       0.41622579       2.32621202      -2.55084867       0.00000000
Si      -0.95584834      -2.81240337       1.88216160       0.00000000
Si      -2.48470232      -2.57641013       0.11144302       0.00000000
Si      -2.39972391      -0.46727865      -2.69053628       0.00000000
Si      -3.43344985       0.87449608      -1.13919850       0.00000000
H       -3.37840268       0.21043422       1.67326751       0.00000000
