10
Lattice="16.2900001489832 0.0 0.0 0.0 16.2900001489832 0.0 0.0 0.0 28.96881123518865" Properties=species:S:1:pos:R:3:initial_magmoms:R:1 pbc="T T T"
Si      -1.39053070       1.35840682       1.28146433       0.00000000
Si       1.43283583       1.39703041      -1.22095138       0.00000000
Si       1.35060391      -1.41206608       1.30617473       0.00000000
Si      -1.37971414      -1.33123510      -1.36114595       0.00000000
Si       0.02295261      -2.72750151      -2.53578199       0.00000000
Si       2.79945282       0.00783549      -2.47862363       0.00000000
Si      -0.00125433       2.67972131       2.63332288       0.00000000
Si      -2.69956253       2.60389136      -0.23725456       0.00000000
Si      -2.73108368      -0.03500721       2.61907022       0.00000000
Si       2.72038115      -0.04347801       2.64001467       0.00000000
