10
Lattice="16.2900001489832 0.0 0.0 0.0 16.2900001489832 0.0 0.0 0.0 28.96881123518865" Properties=species:S:1:pos:R:3:initial_magmoms:R:1 pbc="T T T"
Si      -1.36599796       1.34180731       1.35261173       0.00000000
Si       1.34055298       1.39341403      -1.33760589       0.00000000
Si      -1.37266057      -1.36019872      -1.35017835       0.00000000
Si       1.37411038      -1.33237540       1.37648203       0.00000000
Si       2.73108368       0.03500721      -2.61907022       0.00000000
Si      -2.68027517       2.68110596      -0.04562588       0.00000000
Si      -0.02052540       2.74752030       2.64134724       0.00000000
Si      -0.00125433      -2.71692605      -2.68010751       0.00000000
Si      -2.71726976      -2.68945622       0.02769418       0.00000000
Si       0.03065778      -2.69246009       2.73740782       0.00000000
