10
Lattice="16.2900001489832 0.0 0.0 0.0 16.2900001489832 0.0 0.0 0.0 28.96881123518865" Properties=species:S:1:pos:R:3:initial_magmoms:R:1 pbc="T T T"
H       -0.29528557      -1.43335711      -0.43253332       0.00000000
Si      -0.29753359       1.09872793      -2.00443896       0.00000000
Si       2.04133250       0.09858708       1.13424484       0.00000000
Si      -1.66954420       0.43807068       1.59047464       0.00000000
Si      -2.53063523      -1.72452458       1.48630280       0.00000000
Si       2.38628954       2.43704918       1.08508476       0.00000000
Si       1.36023130      -0.74471365       3.25313956       0.00000000
Si      -2.61904106       0.79791679      -2.37043092       0.00000000
Si       0.97026499      -0.13310559      -3.50088084       0.00000000
Si      -0.71239103      -3.18391311       1.66338914       0.00000000
