10
Lattice="16.2900001489832 0.0 0.0 0.0 16.2900001489832 0.0 0.0 0.0 28.96881123518865" Properties=species:S:1:pos:R:3:initial_magmoms:R:1 pbc="T T T"
H        1.27521379       0.72049042       0.50898201       0.00000000
Si      -1.25910298       1.43721784      -1.47908956       0.00000000
Si      -0.68326777       0.98883559       2.10429445       0.00000000
Si       1.74855233      -1.33400440      -1.03273812       0.00000000
Si      -1.22308579      -1.82720045       1.06083787       0.00000000
H       -2.24155289      -1.91604611      -1.93514556       0.00000000
Si      -1.88309144      -2.93702187      -0.87007825       0.00000000
Si       0.55068345       2.47880045      -2.68639374       0.00000000
Si      -2.93708703       1.41449329       1.87257293       0.00000000
Si      -0.27018594      -0.62053498       3.73465914       0.00000000
