10
Lattice="16.2900001489832 0.0 0.0 0.0 16.2900001489832 0.0 0.0 0.0 28.96881123518865" Properties=species:S:1:pos:R:3:initial_magmoms:R:1 pbc="T T T"
Si       0.95777056      -1.00647766      -1.84786253       0.00000000
Si       1.18408753      -0.84304009       1.86115922       0.00000000
Si      -2.25074045      -0.64316179       0.36778803       0.00000000
Si       0.50580450       2.33922773      -0.07847651       0.00000000
H       -1.91128943       0.08221563      -2.03193036       0.00000000
H        2.38816289       0.06235812       1.80145450       0.00000000
H       -2.22001751      -0.73259389       1.89519757       0.00000000
H       -0.72567064       2.52975557       1.65655250       0.00000000
Si      -0.28611756       0.12658959       3.38506932       0.00000000
Si       3.18826091      -0.99737155      -1.42755405       0.00000000
