10
Lattice="16.2900001489832 0.0 0.0 0.0 16.2900001489832 0.0 0.0 0.0 28.96881123518865" Properties=species:S:1:pos:R:3:initial_magmoms:R:1 pbc="T T T"
H        0.84541843       0.49355442      -1.16121480       0.00000000
Si      -2.19955727      -0.05776434      -0.66529772       0.00000000
Si       0.32604435       1.80141338       1.48577557       0.00000000
Si       1.28497150      -1.90961156       0.56730202       0.00000000
H       -0.64892845      -2.76879504      -0.92256973       0.00000000
H       -0.27837981       2.35678835      -2.16240588       0.00000000
Si      -2.75630061      -1.21525030       1.30006810       0.00000000
H       -1.32862870       3.09374796      -0.46607920       0.00000000
Si       1.92246437       2.84187198       0.12975131       0.00000000
Si       1.53759682       0.59445469       3.05811863       0.00000000
