10
Lattice="16.2900001489832 0.0 0.0 0.0 16.2900001489832 0.0 0.0 0.0 28.96881123518865" Properties=species:S:1:pos:R:3:initial_magmoms:R:1 pbc="T T T"
Si      -1.32633181      -1.39989745       1.38690791       0.00000000
Si       1.28497150       1.30223890       1.52300338       0.00000000
Si      -1.51659901       1.46303749      -1.17887129       0.00000000
Si       1.59451408      -1.39979971      -1.16913197       0.00000000
H       -0.06015897      -0.10746513      -3.12098674       0.00000000
Si       2.63013455       2.63601524       0.17860721       0.00000000
Si      -2.96645790       0.10068849      -2.42810232       0.00000000
Si       2.80606656      -2.60675840       0.40321109       0.00000000
Si      -2.66593997      -0.04522104       2.81472268       0.00000000
Si      -1.25072992      -0.94592773      -3.55795229       0.00000000
