10
Lattice="16.2900001489832 0.0 0.0 0.0 16.2900001489832 0.0 0.0 0.0 28.96881123518865" Properties=species:S:1:pos:R:3:initial_magmoms:R:1 pbc="T T T"
Si       0.80457940      -0.84905110      -0.94707735       0.00000000
Si      -1.53406189       1.57278322       1.15449403       0.00000000
Si       0.73339210       1.79540237       1.74438594       0.00000000
Si      -0.71319250      -2.10919664      -2.21959032       0.00000000
Si       2.07794753       0.59665384      -2.29461954       0.00000000
Si       2.33809721      -2.11584296       0.27589896       0.00000000
Si      -2.41429205      -0.47814408       2.04401035       0.00000000
Si      -2.31155102       2.19033713      -0.99418063       0.00000000
Si       1.02498310      -0.00228060       3.28355682       0.00000000
Si      -0.63887752      -1.69318262       2.97889183       0.00000000
