10
Lattice="16.2900001489832 0.0 0.0 0.0 16.2900001489832 0.0 0.0 0.0 28.96881123518865" Properties=species:S:1:pos:R:3:initial_magmoms:R:1 pbc="T T T"
Si      -0.93836917      -1.75842407       1.25635185       0.00000000
Si       0.65120905      -0.69014215      -2.17140012       0.00000000
Si       1.88841827       0.79737922       1.22016981       0.00000000
Si      -1.65079604       1.77815126       0.14749499       0.00000000
H        1.81441280      -1.63911610      -2.09005570       0.00000000
H        0.41389632       2.24267690      -2.31940178       0.00000000
H        0.51807087      -3.32892669      -0.68576360       0.00000000
Si      -2.23510205      -0.47820924       2.70766902       0.00000000
Si       0.71340427       2.17287425       2.73091359       0.00000000
Si       1.21761235       1.32063031      -3.21401661       0.00000000
