10
Lattice="16.2900001489832 0.0 0.0 0.0 16.2900001489832 0.0 0.0 0.0 28.96881123518865" Properties=species:S:1:pos:R:3:initial_magmoms:R:1 pbc="T T T"
Si       1.35786925      -1.36704052       1.33386891       0.00000000
Si       1.49418397       1.30671865      -1.25535474       0.00000000
Si      -1.32041854       1.36374994       1.38919934       0.00000000
Si      -1.45432234      -1.34436484      -1.27859932       0.00000000
Si       0.06504597       2.60012837      -2.50347018       0.00000000
Si      -0.15758946      -2.62457966      -2.72991648       0.00000000
Si       0.00255753      -2.74064592       2.64404134       0.00000000
Si      -2.74470213       0.06395454      -2.65602574       0.00000000
Si      -2.69565293       0.01589904       2.71339267       0.00000000
Si       2.72419301       0.00162900       2.69592448       0.00000000
