10
Lattice="16.2900001489832 0.0 0.0 0.0 16.2900001489832 0.0 0.0 0.0 28.96881123518865" Properties=species:S:1:pos:R:3:initial_magmoms:R:1 pbc="T T T"
Si      -1.35531172      -1.37360539       1.31017243       0.00000000
Si      -1.35786925       1.36704052      -1.33386891       0.00000000
Si       1.28611180      -1.41833773      -1.36191072       0.00000000
Si       1.36632376       1.36866952       1.36205557       0.00000000
Si       0.13631472       2.67375917      -2.58922366       0.00000000
Si       2.63127485      -0.08456139      -2.70630690       0.00000000
Si      -2.67978647       0.00011403       2.67639950       0.00000000
Si       0.01505196      -2.66945861       2.69291172       0.00000000
Si       2.71288775      -2.65504196       0.04380084       0.00000000
Si      -2.67828779       2.73079047       0.05533043       0.00000000
