10
Lattice="16.2900001489832 0.0 0.0 0.0 16.2900001489832 0.0 0.0 0.0 28.96881123518865" Properties=species:S:1:pos:R:3:initial_magmoms:R:1 pbc="T T T"
Si       1.40157532       1.32900337      -1.32323736       0.00000000
Si       1.34307793      -1.31665555       1.39534073       0.00000000
Si      -1.31163823       1.40470300       1.35524790       0.00000000
Si      -1.36632376      -1.36866952      -1.36205557       0.00000000
Si      -2.67240710       0.00410508       2.63969602       0.00000000
Si       0.03433932       2.71277372      -2.60157306       0.00000000
Si       2.69092883      -2.65917962       0.03748564       0.00000000
Si      -0.01834254      -2.69483843       2.71316092       0.00000000
Si      -2.72419301      -0.00162900      -2.69592448       0.00000000
Si       2.71573850       0.04888629       2.72744255       0.00000000
