10
Lattice="16.2900001489832 0.0 0.0 0.0 16.2900001489832 0.0 0.0 0.0 28.96881123518865" Properties=species:S:1:pos:R:3:initial_magmoms:R:1 pbc="T T T"
Si      -1.31183371       1.39854538       1.34310996       0.00000000
Si       1.34146522      -1.37772676       1.33844599       0.00000000
Si       1.36142047       1.37818288      -1.31782019       0.00000000
Si      -1.33292926      -1.34328970      -1.38230477       0.00000000
Si       2.66317067       0.00612504       2.67889082       0.00000000
Si      -0.09011628      -2.67429674       2.67217005       0.00000000
Si      -2.65406456       2.69894351      -0.07346491       0.00000000
Si      -2.70299972       0.06069654       2.65696143       0.00000000
Si       2.70927137       0.03565881      -2.67567528       0.00000000
Si       0.01834254       2.69483843      -2.71316092       0.00000000
