10
Lattice="16.2900001489832 0.0 0.0 0.0 16.2900001489832 0.0 0.0 0.0 28.96881123518865" Properties=species:S:1:pos:R:3:initial_magmoms:R:1 pbc="T T T"
Si       1.37196010       1.42022737      -1.12294700       0.00000000
Si      -0.63506566       0.61937839       2.12347180       0.00000000
Si       1.08020620      -2.04154427       0.56628232       0.00000000
Si      -2.07942666       0.01275507      -1.16640022       0.00000000
Si      -1.95078616      -1.36417348       2.12147295       0.00000000
Si      -3.47496654      -1.14719068       0.31071947       0.00000000
Si       1.43897716       0.72016462      -3.34972158       0.00000000
Si      -1.67044015       2.71554302       1.95319313       0.00000000
Si       1.88814134      -2.93381274      -1.44137217       0.00000000
Si      -0.47843730      -3.18080172       1.98766601       0.00000000
