10
Lattice="16.2900001489832 0.0 0.0 0.0 16.2900001489832 0.0 0.0 0.0 28.96881123518865" Properties=species:S:1:pos:R:3:initial_magmoms:R:1 pbc="T T T"
Si       1.42368085       1.37393119       1.23974925       0.00000000
Si      -1.27989880       1.31908276      -1.47706175       0.00000000
Si       1.41477022      -1.33643161      -1.33554910       0.00000000
Si      -1.34188876      -1.31619943       1.45507442       0.00000000
Si       0.06996555       2.91700146       2.30785828       0.00000000
Si       0.03357369      -2.69306282      -2.67744238       0.00000000
Si      -2.71678644       2.66121587      -0.25202866       0.00000000
Si       2.70361874       0.06480162       2.69864755       0.00000000
Si      -2.73905666      -2.66615174       0.10793779       0.00000000
Si       2.73476522       0.03730410      -2.72080869       0.00000000
