10
Lattice="16.2900001489832 0.0 0.0 0.0 16.2900001489832 0.0 0.0 0.0 28.96881123518865" Properties=species:S:1:pos:R:3:initial_magmoms:R:1 pbc="T T T"
Si       1.34705269       1.35816247      -1.34786085       0.00000000
Si       1.38818494      -1.34395759       1.32827793       0.00000000
Si      -1.35382933       1.37595115       1.33253635       0.00000000
Si      -1.34478838      -1.38653965      -1.33369510       0.00000000
Si      -2.75662641      -0.02234988      -2.59780712       0.00000000
Si       0.02741607      -2.74455552       2.61272605       0.00000000
Si       2.73416249      -0.03588687      -2.62854303       0.00000000
Si      -2.72091872       0.02197521       2.66020594       0.00000000
Si       2.70391196       2.70042590       0.01874282       0.00000000
Si      -0.02446758       2.69637132      -2.71081445       0.00000000
