10
Lattice="16.2900001489832 0.0 0.0 0.0 16.2900001489832 0.0 0.0 0.0 28.96881123518865" Properties=species:S:1:pos:R:3:initial_magmoms:R:1 pbc="T T T"
Si      -2.03444183      -0.88558957       0.55292770       0.00000000
Si       1.28115964      -0.14035464       1.95910277       0.00000000
Si      -0.01187541       2.17331408      -0.88792303       0.00000000
Si       0.71912206      -1.68726935      -1.48007450       0.00000000
H        2.93583270      -0.37988280       0.17807128       0.00000000
H       -2.27362790       1.97863229       1.04102320       0.00000000
Si       2.98657605      -1.46465020      -0.89018260       0.00000000
Si      -3.05911542      -0.71405587      -1.50710240       0.00000000
Si      -1.36088290      -2.97009057       1.33004503       0.00000000
Si      -3.36411309       0.91322067       1.05600008       0.00000000
