10
Lattice="16.2900001489832 0.0 0.0 0.0 16.2900001489832 0.0 0.0 0.0 28.96881123518865" Properties=species:S:1:pos:R:3:initial_magmoms:R:1 pbc="T T T"
Si       1.19679373       1.51316182       1.30446557       0.00000000
Si      -1.26651493      -1.33006222       1.44284958       0.00000000
Si      -1.34250778       1.34315938      -1.37173115       0.00000000
Si       1.40152645      -1.35031069      -1.31851544       0.00000000
Si       0.33353775      -2.40798782       2.83821928       0.00000000
Si      -2.61013043      -2.71774217       0.06109522       0.00000000
Si      -2.71466336      -0.03243339      -2.68555365       0.00000000
Si       0.05896980      -2.75618658      -2.64499731       0.00000000
Si      -2.68700294       2.71596656      -0.03096766       0.00000000
Si       2.64347606      -0.00100998      -2.77350296       0.00000000
