10
Lattice="16.2900001489832 0.0 0.0 0.0 16.2900001489832 0.0 0.0 0.0 28.96881123518865" Properties=species:S:1:pos:R:3:initial_magmoms:R:1 pbc="T T T"
Si       1.30388012      -1.47929491       1.19701156       0.00000000
Si      -1.36661698       1.38919492       1.25767225       0.00000000
Si      -1.61924230      -1.11487132      -1.23314436       0.00000000
Si       1.62334901       0.97572214      -1.39803773       0.00000000
H        1.05503815      -1.17910279      -2.81675919       0.00000000
Si      -0.14903721      -2.08450100      -2.75705447       0.00000000
Si      -2.90421381       0.79474024      -1.80044638       0.00000000
Si       2.67875695      -0.01995525       2.42141023       0.00000000
Si      -2.57816945       2.59615361      -0.31467082       0.00000000
Si       2.50620838      -2.70304534      -0.39990865       0.00000000
