10
Lattice="16.2900001489832 0.0 0.0 0.0 16.2900001489832 0.0 0.0 0.0 28.96881123518865" Properties=species:S:1:pos:R:3:initial_magmoms:R:1 pbc="T T T"
Si      -1.35345466      -1.32623407       1.37958170       0.00000000
Si      -1.37735209       1.36295173      -1.32610527       0.00000000
Si       1.37430586       1.36585624       1.32642393       0.00000000
Si       1.35488818      -1.37134108      -1.34676003       0.00000000
Si      -2.69307911      -2.68143176      -0.01657016       0.00000000
Si      -0.02278971       2.69876432      -2.68845053       0.00000000
Si       2.73586594       0.00693954      -2.65108076       0.00000000
Si       0.03075552       2.72906372       2.67034502       0.00000000
Si       0.01971090      -2.66097152       2.73856657       0.00000000
Si       2.70861961      -2.69421941       0.01141371       0.00000000
