10
Lattice="16.2900001489832 0.0 0.0 0.0 16.2900001489832 0.0 0.0 0.0 28.96881123518865" Properties=species:S:1:pos:R:3:initial_magmoms:R:1 pbc="T T T"
Si      -0.49902786      -0.70812631      -2.16220310       0.00000000
Si       0.43204338       2.25831530       0.52123582       0.00000000
Si       2.19577799      -0.86319082       0.23905063       0.00000000
Si      -2.16101513       0.07824087       1.05275557       0.00000000
H        0.39715020      -0.48348720       2.35105078       0.00000000
H       -0.32110848      -2.68697036       0.87149772       0.00000000
H        0.46276632       2.16888320       2.04864536       0.00000000
Si       2.92143234      -0.29747169      -1.90252668       0.00000000
Si      -0.32580000       0.19339407       3.50347934       0.00000000
H        0.77149441       2.98369272      -1.87848256       0.00000000
