10
Lattice="16.2900001489832 0.0 0.0 0.0 16.2900001489832 0.0 0.0 0.0 28.96881123518865" Properties=species:S:1:pos:R:3:initial_magmoms:R:1 pbc="T T T"
Si       1.32170545       1.38385180       1.34044483       0.00000000
Si      -1.34146522       1.37772676      -1.33844599       0.00000000
Si       1.38559483      -1.34648254      -1.33053750       0.00000000
Si      -1.43158150      -1.29656998       1.33372407       0.00000000
Si       2.74095005      -0.04399929       2.50397714       0.00000000
Si      -2.73935901      -2.63648765      -0.05275221       0.00000000
Si       0.03973131      -2.70128927      -2.69236132       0.00000000
Si      -2.67439448       0.03443706      -2.72075075       0.00000000
Si       0.01995525       2.75590965      -2.65626618       0.00000000
Si       2.73479487       0.02200779      -2.68729177       0.00000000
