10
Lattice="16.2900001489832 0.0 0.0 0.0 16.2900001489832 0.0 0.0 0.0 28.96881123518865" Properties=species:S:1:pos:R:3:initial_magmoms:R:1 pbc="T T T"
Si       0.82898670      -0.65976130      -2.07492007       0.00000000
Si      -2.30051780       0.51135939      -0.23655931       0.00000000
Si       0.70993938      -1.77992687       1.43468038       0.00000000
Si       0.78200634       2.01243404       1.06028746       0.00000000
H       -0.93235653      -2.26626482      -0.43175116       0.00000000
H       -1.83631796      -0.12867471       1.83195865       0.00000000
Si      -1.08806287      -1.11462697       2.74160830       0.00000000
Si       2.45705819       0.93502972       2.45475913       0.00000000
Si      -0.98740370      -1.60220296      -3.24421717       0.00000000
Si       1.73606278       1.19734759      -3.15154594       0.00000000
