10
Lattice="16.2900001489832 0.0 0.0 0.0 16.2900001489832 0.0 0.0 0.0 28.96881123518865" Properties=species:S:1:pos:R:3:initial_magmoms:R:1 pbc="T T T"
Si       2.25981398       0.50977926       0.37876721       0.00000000
Si      -0.70426558       1.03754269      -2.01938686       0.00000000
Si      -1.17431353       0.40604454       2.03476930       0.00000000
Si      -0.36136107      -2.35124324      -0.42752172       0.00000000
H       -0.09034434       0.09961335       3.03882830       0.00000000
H       -1.42918687       3.03710763      -0.09545223       0.00000000
Si      -2.87824755       0.10521711      -2.08789810       0.00000000
Si      -2.38062062      -2.15189925      -1.78398630       0.00000000
Si       1.31523832      -3.30511071       1.27934961       0.00000000
Si       2.38839095       1.49656231       2.53251142       0.00000000
