10
Lattice="16.2900001489832 0.0 0.0 0.0 16.2900001489832 0.0 0.0 0.0 28.96881123518865" Properties=species:S:1:pos:R:3:initial_magmoms:R:1 pbc="T T T"
Si       1.32981771       1.34185618       1.37474391       0.00000000
Si      -1.30853352       1.44889777      -1.29064745       0.00000000
Si      -1.38413541      -1.36013356       1.32393261       0.00000000
Si       1.37369320      -1.32877531      -1.37329547       0.00000000
Si      -2.67168073       0.08037486      -2.53703345       0.00000000
Si       0.00423426      -2.70014897       2.66353735       0.00000000
Si       2.67925852       2.69951366       0.02977994       0.00000000
Si       2.68963525      -0.02472822       2.69641695       0.00000000
Si      -0.00118363      -2.78811498      -2.59769414       0.00000000
Si      -0.05464627       2.72582202       2.67104027       0.00000000
