10
Lattice="16.2900001489832 0.0 0.0 0.0 16.2900001489832 0.0 0.0 0.0 28.96881123518865" Properties=species:S:1:pos:R:3:initial_magmoms:R:1 pbc="T T T"
Si      -1.35192340      -1.48289500       1.22480134       0.00000000
Si      -1.36839259       1.33007851      -1.37315062       0.00000000
Si       1.35197227      -1.37951866      -1.35542171       0.00000000
Si       1.36731745       1.40729637       1.34586200       0.00000000
Si      -2.61521291      -0.16697250       2.66544929       0.00000000
Si      -2.67675653       2.68635134       0.02053889       0.00000000
Si       2.73618245       2.67577913      -0.06465839       0.00000000
Si      -0.02493999       2.69016320      -2.73407640       0.00000000
Si       2.67509495       0.03867246       2.75232676       0.00000000
Si       2.72513783      -2.71425611       0.00356316       0.00000000
