10
Lattice="16.2900001489832 0.0 0.0 0.0 16.2900001489832 0.0 0.0 0.0 28.96881123518865" Properties=species:S:1:pos:R:3:initial_magmoms:R:1 pbc="T T T"
Si       1.46199819       1.33463971       1.23937265       0.00000000
Si      -1.33024467       1.37428957      -1.37010890       0.00000000
Si       1.39838900      -1.35014779      -1.33059544       0.00000000
Si      -1.36899858      -1.32706486       1.41605343       0.00000000
Si       0.02511055       2.67677282       2.46440574       0.00000000
H       -0.81461730       1.69378535       3.23984288       0.00000000
Si      -2.62676578      -2.68146434      -0.04901523       0.00000000
Si      -2.67610819       0.01948284      -2.73193271       0.00000000
Si       0.07783590      -2.68319108      -2.73436609       0.00000000
Si      -2.71583950       2.72077211      -0.03957140       0.00000000
