10
Lattice="16.2900001489832 0.0 0.0 0.0 16.2900001489832 0.0 0.0 0.0 28.96881123518865" Properties=species:S:1:pos:R:3:initial_magmoms:R:1 pbc="T T T"
Si       1.34457661      -1.34669431      -1.35559552       0.00000000
Si      -1.38245086      -1.28562310       1.37688760       0.00000000
Si       1.34695495       1.30512223       1.40188768       0.00000000
Si      -1.31675329       1.31429350      -1.42888661       0.00000000
Si      -0.11769525       2.63151920       2.62692077       0.00000000
Si       2.66981699      -2.64318284       0.04652391       0.00000000
Si      -2.68433138       0.16050537       2.65531021       0.00000000
Si       2.72860761       2.62242938       0.02430483       0.00000000
Si      -2.68079645      -2.70462872       0.01567213       0.00000000
Si       2.73574263      -0.00884547      -2.66944699       0.00000000
