10
Lattice="16.2900001489832 0.0 0.0 0.0 16.2900001489832 0.0 0.0 0.0 28.96881123518865" Properties=species:S:1:pos:R:3:initial_magmoms:R:1 pbc="T T T"
Si      -1.90050545       0.51481287      -1.13873500       0.00000000
Si       1.59220090       1.61386660      -0.47928898       0.00000000
Si       0.63270361      -2.14105988       0.62949227       0.00000000
Si      -0.75629584       1.92033038       2.08029089       0.00000000
H        2.67617009       1.30743541       0.52477002       0.00000000
Si      -2.71692767       1.19658196       0.92758742       0.00000000
Si       2.14671251      -1.04636210       2.07598613       0.00000000
Si       0.74202580       0.50898105       3.32417399       0.00000000
Si       0.60259969       3.34407639       0.77766774       0.00000000
Si       1.54854370      -2.86669794      -1.45345217       0.00000000
