10
Lattice="16.2900001489832 0.0 0.0 0.0 16.2900001489832 0.0 0.0 0.0 28.96881123518865" Properties=species:S:1:pos:R:3:initial_magmoms:R:1 pbc="T T T"
H       -0.03021795      -0.26438670       0.74811955       0.00000000
Si       0.01953171       2.20073015      -1.18302831       0.00000000
Si      -0.33826185       0.07209954      -2.48781254       0.00000000
Si       1.54371209       1.98374735       0.62772517       0.00000000
Si       2.18824061      -1.86344570      -0.31379016       0.00000000
Si      -1.07391826      -1.56589255       2.33097540       0.00000000
Si       3.01606095       0.16711911       0.49391823       0.00000000
H       -3.02866941       0.37579401       0.33085279       0.00000000
Si       0.41578596      -2.93695671       0.96947024       0.00000000
Si       1.32680585      -1.58487040      -2.42973007       0.00000000
