10
Lattice="16.2900001489832 0.0 0.0 0.0 16.2900001489832 0.0 0.0 0.0 28.96881123518865" Properties=species:S:1:pos:R:3:initial_magmoms:R:1 pbc="T T T"
Si       1.38100431      -1.38409615       1.28890932       0.00000000
Si      -1.37487683      -1.45933966      -1.22439867       0.00000000
Si      -1.37369320       1.32877531       1.37329547       0.00000000
Si       1.37549829       1.37767789      -1.33527969       0.00000000
Si      -2.67875695       0.01995525      -2.42141023       0.00000000
Si       2.68614283      -0.02376711       2.68697312       0.00000000
Si       0.01026759      -2.70062627       2.68404727       0.00000000
Si       2.67977344       2.72800487       0.02169764       0.00000000
Si      -0.04387549       2.67063149       2.74803937       0.00000000
Si       2.69772502      -2.72201830      -0.15816971       0.00000000
