10
Lattice="16.2900001489832 0.0 0.0 0.0 16.2900001489832 0.0 0.0 0.0 28.96881123518865" Properties=species:S:1:pos:R:3:initial_magmoms:R:1 pbc="T T T"
Si       1.37393119      -1.35842311      -1.32480168       0.00000000
Si       1.38030058       1.36287028       1.32152820       0.00000000
Si      -1.34394130      -1.37427328       1.35492924       0.00000000
Si      -1.34645322       1.37150398      -1.35684118       0.00000000
Si       0.02241504      -2.76048714      -2.62072145       0.00000000
Si      -2.67934681       2.70829397       0.03945552       0.00000000
Si       0.02259423       2.74212831       2.64499731       0.00000000
Si       2.75838573      -0.01410714       2.63361257       0.00000000
Si       0.05919786      -2.73704582       2.65919203       0.00000000
Si       2.71668332       0.00537570      -2.68184564       0.00000000
