10
Lattice="16.2900001489832 0.0 0.0 0.0 16.2900001489832 0.0 0.0 0.0 28.96881123518865" Properties=species:S:1:pos:R:3:initial_magmoms:R:1 pbc="T T T"
Si      -1.39932030       1.28871494      -1.34203812       0.00000000
Si       1.34278520      -1.26959374      -1.43308709       0.00000000
Si       1.37921779       1.39114484       1.28328937       0.00000000
Si      -1.38097776      -1.37828062       1.30432073       0.00000000
Si      -0.00592663       2.63243144      -2.62515657       0.00000000
Si       2.66966110      -2.67037085      -0.08296668       0.00000000
Si      -0.05835664      -2.59862969      -2.74264538       0.00000000
Si      -0.00050874       2.72039744       2.63607492       0.00000000
Si      -0.02724633      -2.70115895       2.66249447       0.00000000
Si       2.69593687       0.03899826       2.67454550       0.00000000
