10
Lattice="16.28999089631971 0.0 0.0 0.0 16.28999089631971 0.0 0.0 0.0 34.395419527814205" Properties=species:S:1:pos:R:3:initial_magmoms:R:1 pbc="T T T"
Si      -1.34877942      -1.35686482      -1.36163975       0.00000000
Si       1.35775521      -1.35410197       1.35827588       0.00000000
Si      -1.35738054       1.35844102       1.35851664       0.00000000
Si       1.37640726       1.35589978      -1.38258313       0.00000000
Si      -2.58956754       0.07597330      -2.77194561       0.00000000
Si      -2.71512109      -2.70957013      -0.00189175       0.00000000
Si       0.00110772      -2.71292587       2.71565747       0.00000000
Si      -2.71099646       2.71771120       0.00092868       0.00000000
Si      -2.71354585       0.00152474       2.71582945       0.00000000
Si       2.71612944       0.00166321       2.71582945       0.00000000
