10
Lattice="16.28999089631971 0.0 0.0 0.0 16.28999089631971 0.0 0.0 0.0 34.395419527814205" Properties=species:S:1:pos:R:3:initial_magmoms:R:1 pbc="T T T"
Si      -1.35728280      -1.35793440      -1.35676248       0.00000000
Si       1.35804843       1.35754344      -1.35655610       0.00000000
Si      -1.35640314       1.35584928       1.36181861       0.00000000
Si       1.35847197      -1.35754344       1.35882620       0.00000000
Si      -0.00765630      -2.72048701       2.69385076       0.00000000
Si       2.72142369       0.00081450       2.69391955       0.00000000
Si      -2.71476108      -0.00035838      -2.71390330       0.00000000
Si      -2.71373481       2.71516833       0.00168538       0.00000000
Si      -2.71425609      -2.71468940      -0.00010319       0.00000000
Si       0.00039096       2.71484253      -2.71410968       0.00000000
