10
Lattice="16.28999089631971 0.0 0.0 0.0 16.28999089631971 0.0 0.0 0.0 34.395419527814205" Properties=species:S:1:pos:R:3:initial_magmoms:R:1 pbc="T T T"
Si      -1.67078385      -0.21890502       1.58139909       0.00000000
Si       1.43296614       1.81073124       0.14184679       0.00000000
Si       1.20467808      -2.18070972       0.60652917       0.00000000
Si       0.08749359      -2.51766837      -1.43205409       0.00000000
Si       0.03973131       2.06290044      -2.07638385       0.00000000
Si      -2.14236306       1.44925614      -1.49578884       0.00000000
Si      -0.48288447      -2.06961192       2.42904028       0.00000000
Si      -3.27707559      -0.87537573      -0.00557206       0.00000000
Si       1.76507037       1.60316406       2.46890459       0.00000000
Si       3.35158605      -1.05777486       0.08574783       0.00000000
