10
Lattice="16.28999089631971 0.0 0.0 0.0 16.28999089631971 0.0 0.0 0.0 34.395419527814205" Properties=species:S:1:pos:R:3:initial_magmoms:R:1 pbc="T T T"
Si       1.87036893       1.21274489       0.82511218       0.00000000
Si       0.27807030      -0.43773348      -2.34570013       0.00000000
Si      -2.10259007       1.03598210      -0.52999932       0.00000000
Si       0.07350048      -1.38123303       1.97089304       0.00000000
Si      -3.20400584       0.76419322       1.50170486       0.00000000
Si       1.87194906       3.08640440      -0.72478069       0.00000000
Si      -0.71375449      -3.61542282      -0.24124961       0.00000000
Si       0.98476308       2.00406422      -2.94421516       0.00000000
Si       2.12411826      -2.42478672       1.83231381       0.00000000
Si       3.51593586      -0.56571586       1.19954093       0.00000000
