10
Lattice="16.28999089631971 0.0 0.0 0.0 16.28999089631971 0.0 0.0 0.0 34.395419527814205" Properties=species:S:1:pos:R:3:initial_magmoms:R:1 pbc="T T T"
Si      -1.33428132      -1.87183503       0.25951359       0.00000000
Si       2.11418136      -0.71796546       0.73884842       0.00000000
Si       0.04008969       0.27512181      -2.35980226       0.00000000
Si      -1.98498537       0.31570020       2.93853991       0.00000000
Si       3.70144638       0.95074956       0.37869378       0.00000000
Si       0.86938101       2.48968215      -2.84546586       0.00000000
Si      -0.86095908      -3.51277560      -1.43019674       0.00000000
Si      -2.22327549       0.27956898      -3.28022420       0.00000000
Si       1.41635034       2.44522674       2.88233777       0.00000000
Si       0.61623441       3.89624220       0.87405689       0.00000000
