10
Lattice="16.28999089631971 0.0 0.0 0.0 16.28999089631971 0.0 0.0 0.0 34.395419527814205" Properties=species:S:1:pos:R:3:initial_magmoms:R:1 pbc="T T T"
Si       1.35767376       1.35651717      -1.35789753       0.00000000
Si      -1.35744570       1.35744570       1.35720962       0.00000000
Si       1.35747828      -1.35734796       1.35758797       0.00000000
Si      -1.35759231      -1.35796698      -1.35772555       0.00000000
Si       2.71538010       0.00027693       2.71390330       0.00000000
Si       2.71487511       2.71484253      -0.00020637       0.00000000
Si      -0.00063531       2.71485882       2.71493517       0.00000000
Si       2.71492398      -2.71492398      -0.00010319       0.00000000
Si      -2.71530354      -2.71477737       0.00003440       0.00000000
Si       0.00079821      -2.71459818       2.71569187       0.00000000
