10
Lattice="16.28999089631971 0.0 0.0 0.0 16.28999089631971 0.0 0.0 0.0 34.395419527814205" Properties=species:S:1:pos:R:3:initial_magmoms:R:1 pbc="T T T"
Si      -0.00158013      -1.87365951       1.54989287       0.00000000
Si       2.32704279       0.45383940      -0.65767518       0.00000000
Si      -1.03752639       2.09613204       0.76880685       0.00000000
Si      -0.88718598      -1.08234018      -2.21943448       0.00000000
Si       0.00920385      -0.67215798       3.58022122       0.00000000
Si       0.56876535       2.75260275       2.35577800       0.00000000
Si      -1.87194906      -3.08640440       0.72478069       0.00000000
Si      -1.19869965       2.92513014      -1.95286983       0.00000000
Si       1.75666473       0.90189585       3.20341919       0.00000000
Si       3.44422728       0.79079805       1.38090807       0.00000000
