10
Lattice="16.28999089631971 0.0 0.0 0.0 16.28999089631971 0.0 0.0 0.0 34.395419527814205" Properties=species:S:1:pos:R:3:initial_magmoms:R:1 pbc="T T T"
Si      -1.10801322      -0.82924245      -1.92181074       0.00000000
Si      -0.12352707       2.29496778       0.62634094       0.00000000
Si       2.32158564      -0.47110680      -0.39265833       0.00000000
Si      -1.62810405      -0.99821862       1.51649489       0.00000000
Si      -1.96903746      -2.84358240      -0.50661042       0.00000000
Si       1.04669766       1.95457194       2.71899383       0.00000000
Si      -0.57580263      -3.09575160       1.71162022       0.00000000
Si       2.45185677      -0.27780966      -2.83659183       0.00000000
Si      -3.74438682      -0.40850433       0.59923733       0.00000000
Si       0.85802688       3.49884765      -1.25457363       0.00000000
