10
Lattice="16.28999089631971 0.0 0.0 0.0 16.28999089631971 0.0 0.0 0.0 34.395419527814205" Properties=species:S:1:pos:R:3:initial_magmoms:R:1 pbc="T T T"
Si       1.46746836       1.75599684       0.40197949       0.00000000
Si       0.86232744      -1.87004313       1.12755127       0.00000000
Si      -1.87291017       0.97984350       1.03196635       0.00000000
Si      -0.33210423       0.20756718      -2.32705780       0.00000000
Si      -1.76507037      -1.60316406      -2.46890459       0.00000000
Si       1.59922188      -0.64102779       3.00574860       0.00000000
Si      -1.88805987       2.92117167      -0.28675477       0.00000000
Si       3.35846043       1.13318127      -0.80633227       0.00000000
Si      -1.38440565       2.30510016      -2.52218313       0.00000000
Si       0.23640048       3.73449879       0.11047815       0.00000000
