10
Lattice="16.28999089631971 0.0 0.0 0.0 16.28999089631971 0.0 0.0 0.0 34.395419527814205" Properties=species:S:1:pos:R:3:initial_magmoms:R:1 pbc="T T T"
Si      -1.35760860       1.35717013       1.35731280       0.00000000
Si       1.35718506      -1.35765747       1.35751918       0.00000000
Si       1.35664749       1.35882390      -1.35738159       0.00000000
Si      -1.35879777      -1.35829278      -1.35717522       0.00000000
Si      -0.00110772       2.71292587      -2.71565747       0.00000000
Si      -2.71428215       0.00050499       2.71462561       0.00000000
Si       0.00037467       2.71492139       2.71400649       0.00000000
Si      -2.71465357       2.71445061       0.00017198       0.00000000
Si       2.71502172       2.71458908       0.00017198       0.00000000
Si       2.71433754      -0.00032580       2.71565747       0.00000000
