10
Lattice="16.28999089631971 0.0 0.0 0.0 16.28999089631971 0.0 0.0 0.0 34.395419527814205" Properties=species:S:1:pos:R:3:initial_magmoms:R:1 pbc="T T T"
Si      -1.35715248      -1.35733167      -1.35813829       0.00000000
Si       1.35752715       1.35765560      -1.35824148       0.00000000
Si      -1.35910728       1.35834165       1.35655610       0.00000000
Si       1.36021500      -1.36124127       1.36254091       0.00000000
Si      -0.00736308       2.70944958       2.69230297       0.00000000
Si      -2.71396287       2.71524719      -0.00165098       0.00000000
Si      -2.71433754       0.00032580      -2.71565747       0.00000000
Si       2.71516833       2.71513316      -0.00085989       0.00000000
Si      -2.71487511      -2.71542897      -0.00061912       0.00000000
Si       0.00068418       2.71491488      -2.71548549       0.00000000
