10
Lattice="16.28999089631971 0.0 0.0 0.0 16.28999089631971 0.0 0.0 0.0 34.395419527814205" Properties=species:S:1:pos:R:3:initial_magmoms:R:1 pbc="T T T"
Si       0.12352707      -2.29496778      -0.62634094       0.00000000
Si       1.17022473      -0.34039584       2.09265289       0.00000000
Si       0.98155395       1.20387987      -1.88091457       0.00000000
Si      -2.23650297       1.04462883       0.14384172       0.00000000
Si      -1.50457698      -3.29318640       0.89015395       0.00000000
Si       2.44511271      -2.76607458      -1.01899927       0.00000000
Si      -0.81285471       1.11096171      -3.60532989       0.00000000
Si       1.19943270       1.61876988       3.35517186       0.00000000
Si      -2.31221889       2.36275310      -2.16846044       0.00000000
Si       3.43875384       0.84455505      -1.80593251       0.00000000
