10
Lattice="16.28999089631971 0.0 0.0 0.0 16.28999089631971 0.0 0.0 0.0 34.395419527814205" Properties=species:S:1:pos:R:3:initial_magmoms:R:1 pbc="T T T"
Si      -1.30487787       1.31040018       1.54747143       0.00000000
Si       1.39603671      -1.40577813       1.54745767       0.00000000
Si       1.64406825       1.23069321      -1.52626461       0.00000000
Si      -2.03605452      -0.80850528      -1.34500065       0.00000000
Si      -2.74921443       2.60762175       0.10733097       0.00000000
Si      -2.69974170      -2.75691960       0.02034834       0.00000000
Si       2.80591992       2.65321746       0.01050437       0.00000000
Si       2.77123851      -2.79865458       0.18568034       0.00000000
Si       0.04650795       2.65673610       2.93387589       0.00000000
Si      -2.66750379      -0.05748741       2.93022998       0.00000000
