10
Lattice="16.28999089631971 0.0 0.0 0.0 16.28999089631971 0.0 0.0 0.0 34.395419527814205" Properties=species:S:1:pos:R:3:initial_magmoms:R:1 pbc="T T T"
Si      -1.76586858       0.86455917       1.31321785       0.00000000
Si       0.15275133      -2.00394693       1.25711889       0.00000000
Si      -0.78811020      -0.55079748      -2.18751551       0.00000000
Si       1.91337453       1.44487413       0.48418459       0.00000000
Si      -3.15910341       1.11672837      -0.90501278       0.00000000
Si       0.68499450      -3.34318041      -0.65695288       0.00000000
Si      -3.19883472      -0.94617207       1.17137106       0.00000000
Si       1.13151969       3.48920397      -0.79106070       0.00000000
Si       1.92469608       1.79017326       2.83394338       0.00000000
Si       0.99290808      -1.38261375      -3.52267765       0.00000000
