10
Lattice="16.28999089631971 0.0 0.0 0.0 16.28999089631971 0.0 0.0 0.0 34.395419527814205" Properties=species:S:1:pos:R:3:initial_magmoms:R:1 pbc="T T T"
Si      -1.35679410       1.35710361       1.35782874       0.00000000
Si       1.35747828      -1.35734796       1.35720962       0.00000000
Si      -1.35852084      -1.35663120      -1.35696885       0.00000000
Si       1.35780408       1.35790182      -1.35690006       0.00000000
Si       0.00117288      -2.71464705       2.71338737       0.00000000
Si      -2.71433754       0.00001629       2.71397209       0.00000000
Si      -2.71484253       2.71458189      -0.00013758       0.00000000
Si      -2.71409319       0.00083079      -2.71562308       0.00000000
Si       2.71489140      -2.71489140      -0.00010319       0.00000000
Si      -2.71479366      -2.71518462      -0.00003440       0.00000000
