10
Lattice="16.28999089631971 0.0 0.0 0.0 16.28999089631971 0.0 0.0 0.0 34.395419527814205" Properties=species:S:1:pos:R:3:initial_magmoms:R:1 pbc="T T T"
Si       1.78077393      -1.58814468      -0.24988286       0.00000000
Si      -0.13027113      -0.19329714       2.44393350       0.00000000
Si       0.72430227       1.88936307      -1.50026025       0.00000000
Si      -1.97912097      -0.66204189      -1.44226954       0.00000000
Si       0.72386244      -3.27368727      -1.55715030       0.00000000
Si      -0.75769677      -1.99374939      -3.03976569       0.00000000
Si       1.95721092       0.72040896      -3.07247575       0.00000000
Si      -3.55986999      -0.55143279       0.91478109       0.00000000
Si       3.32162874      -0.55649898      -1.64960524       0.00000000
Si       2.38855383       2.88914553      -0.23540238       0.00000000
