10
Lattice="16.28999089631971 0.0 0.0 0.0 16.28999089631971 0.0 0.0 0.0 34.395419527814205" Properties=species:S:1:pos:R:3:initial_magmoms:R:1 pbc="T T T"
Si       0.01132155       0.34529913       2.34975879       0.00000000
Si      -1.91337453      -1.44487413      -0.48418459       0.00000000
Si       2.42489682      -0.39897468      -0.08770837       0.00000000
Si      -0.78185484       2.04432984      -1.27524529       0.00000000
Si       0.85240683      -1.69191198       3.14188575       0.00000000
Si       2.52674190      -2.23787133       1.48419758       0.00000000
Si      -3.67924311      -0.58031496       0.82903326       0.00000000
Si       0.65322900       3.76882182      -0.54458298       0.00000000
Si      -1.76062320      -3.44882106       0.77293430       0.00000000
Si       1.37894850       2.09650671       3.11168655       0.00000000
