10
Lattice="16.28999089631971 0.0 0.0 0.0 16.28999089631971 0.0 0.0 0.0 34.395419527814205" Properties=species:S:1:pos:R:3:initial_magmoms:R:1 pbc="T T T"
Si       0.80723466      -2.17347696       0.37484149       0.00000000
Si       1.24341570       1.73380986       1.01562852       0.00000000
Si       0.11720655       0.42065667      -2.36874508       0.00000000
Si      -2.27797731       0.77201568       0.87020460       0.00000000
Si      -1.47786138      -0.67899978       2.87848548       0.00000000
Si       0.36722547       3.35681514      -0.36957899       0.00000000
Si      -2.02483071      -0.63454437      -2.84931815       0.00000000
Si      -3.23895699       0.77136408      -1.44374854       0.00000000
Si       1.75461219      -2.68568343      -1.78856281       0.00000000
Si       0.29160729      -2.49196275       2.82489738       0.00000000
