10
Lattice="16.28999089631971 0.0 0.0 0.0 16.28999089631971 0.0 0.0 0.0 34.395419527814205" Properties=species:S:1:pos:R:3:initial_magmoms:R:1 pbc="T T T"
Si       1.35938421      -1.35526284      -1.36371036       0.00000000
Si      -1.35726651       1.35996806      -1.36346959       0.00000000
Si      -1.34894232      -1.35526284       1.39494141       0.00000000
Si       1.35819504       1.36448528       1.39263692       0.00000000
Si       2.71526607      -2.71207323      -0.00650074       0.00000000
Si      -2.71221984      -2.71640637      -0.00006879       0.00000000
Si      -2.71366965       2.71722806      -0.00533129       0.00000000
Si       2.71498914       2.71700000       0.00048154       0.00000000
Si       0.00130320      -2.71334385      -2.72061041       0.00000000
Si      -2.71490769       0.00249050      -2.72085118       0.00000000
