10
Lattice="16.28999089631971 0.0 0.0 0.0 16.28999089631971 0.0 0.0 0.0 34.395419527814205" Properties=species:S:1:pos:R:3:initial_magmoms:R:1 pbc="T T T"
Si      -0.86543883       1.30696299       1.67784390       0.00000000
Si      -1.63901835      -1.66143339       0.04629626       0.00000000
Si       1.99181088      -0.94149684       0.84165639       0.00000000
Si      -0.24728220       0.83784357      -2.21668284       0.00000000
Si      -2.26185021       2.68684721       0.26436334       0.00000000
Si      -1.33048575      -2.64471408      -2.04903947       0.00000000
Si      -0.27649017      -1.12132215      -3.47920182       0.00000000
Si       0.84654243       2.68110824       2.37579614       0.00000000
Si       3.69136287       0.24708672      -0.30126965       0.00000000
Si       1.74858489       1.82222776      -2.86806366       0.00000000
