10
Lattice="16.28999089631971 0.0 0.0 0.0 16.28999089631971 0.0 0.0 0.0 34.395419527814205" Properties=species:S:1:pos:R:3:initial_magmoms:R:1 pbc="T T T"
Si       1.79362904      -1.56604797      -0.10872398       0.00000000
Si      -0.77869458      -0.31001336       2.29052985       0.00000000
Si       0.80909060       1.93920884      -1.29516025       0.00000000
Si      -1.88421543      -0.83231379      -1.38785595       0.00000000
Si       2.75023160      -0.40478369       2.17540831       0.00000000
Si       2.13306051       0.60220220      -2.87408286       0.00000000
Si      -0.58412682      -2.13225579      -2.88336963       0.00000000
Si       0.74064114      -3.39153795      -1.31751728       0.00000000
Si       3.49258319      -0.72237679      -1.46204691       0.00000000
Si      -2.85715197      -2.68131024      -0.07106098       0.00000000
