10
Lattice="16.28999089631971 0.0 0.0 0.0 16.28999089631971 0.0 0.0 0.0 34.395419527814205" Properties=species:S:1:pos:R:3:initial_magmoms:R:1 pbc="T T T"
Si      -1.16043444      -1.97804324      -0.54073069       0.00000000
Si      -0.85229280       0.95100205       1.98788438       0.00000000
Si       2.44320678      -0.13493333      -0.07154251       0.00000000
Si      -0.24858540       3.46872092       0.05572061       0.00000000
Si       0.36474939      -2.50623020      -2.43313334       0.00000000
Si      -3.60826758       0.75722762      -0.36245913       0.00000000
Si      -2.94466185       1.86573605       1.61011928       0.00000000
Si       2.88106569      -2.26761428       1.29103279       0.00000000
Si       3.22190136       0.17508003      -2.36207236       0.00000000
Si       0.63851913       2.41448099       3.13504106       0.00000000
