10
Lattice="16.28999089631971 0.0 0.0 0.0 16.28999089631971 0.0 0.0 0.0 34.395419527814205" Properties=species:S:1:pos:R:3:initial_magmoms:R:1 pbc="T T T"
Si      -1.35742971       1.35733167       1.35717522       0.00000000
Si      -1.35635657      -1.35742941      -1.35831027       0.00000000
Si       1.35771123       1.35681039      -1.35775994       0.00000000
Si       1.35766236      -1.35790182       1.35738159       0.00000000
Si       0.00310162      -2.71396287      -2.71486638       0.00000000
Si      -2.71430726       0.00164529       2.71479759       0.00000000
Si      -2.71469822      -2.71485882      -0.00003440       0.00000000
Si       2.71530354       2.71477737      -0.00003440       0.00000000
Si      -2.71515434       2.71502172       0.00000000       0.00000000
Si       0.00118265      -2.71557558       2.71483198       0.00000000
