10
Lattice="16.28999089631971 0.0 0.0 0.0 16.28999089631971 0.0 0.0 0.0 34.395419527814205" Properties=species:S:1:pos:R:3:initial_magmoms:R:1 pbc="T T T"
Si      -1.39316967       1.25634996      -1.53241998       0.00000000
Si      -1.83537801      -0.85929750       1.36230014       0.00000000
Si       1.32753726       1.45658664       1.50875592       0.00000000
Si       1.30497561      -1.47541788      -1.51505029       0.00000000
Si       2.67193467       2.55811644      -0.10683223       0.00000000
Si      -2.63425590       2.67314013      -0.05561742       0.00000000
Si      -2.76649812      -2.63696004      -0.08213631       0.00000000
Si      -0.05698242       2.60156187      -2.91824661       0.00000000
Si       2.69667806      -2.83349889       0.04203123       0.00000000
Si      -3.62700108       0.88171254       1.21384943       0.00000000
