10
Lattice="16.28999089631971 0.0 0.0 0.0 16.28999089631971 0.0 0.0 0.0 34.395419527814205" Properties=species:S:1:pos:R:3:initial_magmoms:R:1 pbc="T T T"
Si      -0.03999195      -2.23500429      -0.80633227       0.00000000
Si      -1.95937749       1.35498591      -1.00723603       0.00000000
Si       2.47328531      -0.76455486      -0.64240361       0.00000000
Si      -1.23217560      -0.57974481      -2.31429710       0.00000000
Si      -0.21699909       2.99398797      -1.28222756       0.00000000
Si      -2.84135067       1.27389429       1.30995028       0.00000000
Si       1.80537902       2.01956904      -2.25572166       0.00000000
Si      -0.37923120      -3.35569113       1.31576311       0.00000000
Si       2.63445857      -1.59355296       2.07927306       0.00000000
Si       3.76917110       0.73107891       0.58905628       0.00000000
