10
Lattice="16.28999089631971 0.0 0.0 0.0 16.28999089631971 0.0 0.0 0.0 34.395419527814205" Properties=species:S:1:pos:R:3:initial_magmoms:R:1 pbc="T T T"
Si      -2.23104582       0.65572137       0.41787019       0.00000000
Si       0.07667703      -2.38441617       0.18948447       0.00000000
Si       1.05250083       1.11770577       1.85116251       0.00000000
Si       0.33923925       1.12068684      -2.12209538       0.00000000
Si      -2.87627643      -1.21394709       1.69548876       0.00000000
Si       3.01368977       1.76213817       0.76350995       0.00000000
Si      -1.02473874      -2.65620505       2.22118864       0.00000000
Si       0.37923120       3.35569113      -1.31576311       0.00000000
Si      -0.47607525       2.57468337       2.93761124       0.00000000
Si      -2.36027439       2.79068877       1.56609312       0.00000000
