10
Lattice="16.28999089631971 0.0 0.0 0.0 16.28999089631971 0.0 0.0 0.0 34.395419527814205" Properties=species:S:1:pos:R:3:initial_magmoms:R:1 pbc="T T T"
Si       0.10184508      -1.83889665       1.57190595       0.00000000
Si       1.35982404       1.92974598       0.62867983       0.00000000
Si      -2.42489682       0.39897468       0.08770837       0.00000000
Si       0.88197318       0.08109162      -2.31718631       0.00000000
Si       2.84135067      -1.27389429      -1.30995028       0.00000000
Si      -2.41357527       0.74427381       2.43746716       0.00000000
Si      -1.57248999      -1.29293730       3.22959412       0.00000000
Si       1.36070370       1.98674469       2.99611788       0.00000000
Si       0.54760464       3.79793205      -0.59390604       0.00000000
Si       0.23107365      -3.97386405       0.42368301       0.00000000
