10
Lattice="16.28999089631971 0.0 0.0 0.0 16.28999089631971 0.0 0.0 0.0 34.395419527814205" Properties=species:S:1:pos:R:3:initial_magmoms:R:1 pbc="T T T"
Si       2.02428404       0.21864438       1.16012375       0.00000000
Si      -2.12134896       0.59183199       0.81747639       0.00000000
Si      -0.22755501      -2.26789380       0.68113287       0.00000000
Si      -0.09444942       0.32172750      -2.37995799       0.00000000
Si      -1.82633706      -2.47042737      -0.96293470       0.00000000
Si       2.60637461       2.33183205       0.36710252       0.00000000
Si      -0.56021310      -1.79320320       3.02862157       0.00000000
Si       3.31073792      -1.43174439       0.00543448       0.00000000
Si      -3.49063749      -0.87496848      -0.53639687       0.00000000
Si      -0.86192019      -1.80517635      -3.07147828       0.00000000
