10
Lattice="16.28999089631971 0.0 0.0 0.0 16.28999089631971 0.0 0.0 0.0 34.395419527814205" Properties=species:S:1:pos:R:3:initial_magmoms:R:1 pbc="T T T"
Si      -1.32476796       1.25928216      -1.56585235       0.00000000
Si       1.05298790       1.82548998       1.20879330       0.00000000
Si      -1.54898352      -1.23271317       1.45272575       0.00000000
Si       1.36360399      -1.42527726      -1.56413258       0.00000000
Si      -2.62485657       2.55922416      -0.07033867       0.00000000
Si      -0.74064114       3.39153795       1.31751728       0.00000000
Si      -2.66471820      -2.73541680      -0.16774655       0.00000000
Si       2.75194205       2.66916115      -0.14452963       0.00000000
Si      -3.59779311       0.71022771       1.24645630       0.00000000
Si       2.75982641      -2.72007162      -0.25724349       0.00000000
