10
Lattice="16.28999089631971 0.0 0.0 0.0 16.28999089631971 0.0 0.0 0.0 34.395419527814205" Properties=species:S:1:pos:R:3:initial_magmoms:R:1 pbc="T T T"
Si      -0.97140528      -0.35818452       2.07404496       0.00000000
Si       2.17530537      -0.85990023       0.01179764       0.00000000
Si      -0.08824293       2.31372476      -0.34003331       0.00000000
Si      -1.61355708      -0.72993861      -1.54377048       0.00000000
Si      -2.94045903       0.82044326       1.46875403       0.00000000
Si       1.51149113      -2.84675895       1.10357765       0.00000000
Si      -2.42812224       2.45297168      -0.20282990       0.00000000
Si       0.97472759       2.27800079      -2.43368366       0.00000000
Si       1.45536719       0.05890464      -3.32380322       0.00000000
Si      -0.49689387      -1.27290060      -3.51290935       0.00000000
