10
Lattice="16.28999089631971 0.0 0.0 0.0 16.28999089631971 0.0 0.0 0.0 34.395419527814205" Properties=species:S:1:pos:R:3:initial_magmoms:R:1 pbc="T T T"
Si      -0.50203174       1.75803309       1.56760652       0.00000000
Si       1.28321217       1.17043650      -1.76297261       0.00000000
Si       1.28210445      -2.16463149       0.97786232       0.00000000
Si      -2.61002357      -0.39773664      -1.05504569       0.00000000
Si      -2.85393374       0.76514130       1.63464323       0.00000000
Si       0.37574514      -3.18634029      -1.09549472       0.00000000
Si      -1.91279509      -2.62796796      -0.99653905       0.00000000
Si      -0.64610213       2.07780579      -2.76893601       0.00000000
Si      -1.83573851      -1.05334398       2.99247196       0.00000000
Si       1.06782579       1.43542593       3.36785759       0.00000000
