10
Lattice="16.28999089631971 0.0 0.0 0.0 16.28999089631971 0.0 0.0 0.0 34.395419527814205" Properties=species:S:1:pos:R:3:initial_magmoms:R:1 pbc="T T T"
Si      -1.35616531      -1.35691627       1.35731280       0.00000000
Si      -1.35361592       1.35927018      -1.35758797       0.00000000
Si       1.35835794       1.35788553       1.35734720       0.00000000
Si       1.35738054      -1.35844102      -1.35851664       0.00000000
Si       0.00081450       2.69345376      -2.72461404       0.00000000
Si       2.71513575      -2.71254298      -0.00024077       0.00000000
Si      -2.71357482       0.00047241       2.71466000       0.00000000
Si      -2.71419850      -2.71437624       0.00154779       0.00000000
Si       0.00087966      -2.71419676       2.71445363       0.00000000
Si      -2.71307411       2.71580364      -0.00103186       0.00000000
