10
Lattice="16.28999089631971 0.0 0.0 0.0 16.28999089631971 0.0 0.0 0.0 34.395419527814205" Properties=species:S:1:pos:R:3:initial_magmoms:R:1 pbc="T T T"
Si      -1.35721460       1.35537687      -1.36216256       0.00000000
Si       1.35921361      -1.35904212      -1.35972048       0.00000000
Si       1.33132025       1.38077298       1.36976395       0.00000000
Si      -1.35390773      -1.36194174       1.37767490       0.00000000
Si       2.72754266       0.08597862       2.67665304       0.00000000
Si      -2.71392725       2.71366965      -0.00450580       0.00000000
Si       2.71517855       2.71479366      -0.00185735       0.00000000
Si       0.00124182       2.71347417      -2.71854669       0.00000000
Si      -2.71417160      -0.00182448      -2.71895943       0.00000000
Si      -2.71749476      -2.71813311      -0.00402427       0.00000000
