10
Lattice="16.28999089631971 0.0 0.0 0.0 16.28999089631971 0.0 0.0 0.0 34.395419527814205" Properties=species:S:1:pos:R:3:initial_magmoms:R:1 pbc="T T T"
Si      -1.35681039      -1.35741312      -1.35772555       0.00000000
Si       1.35772263       1.35809730      -1.35751918       0.00000000
Si      -1.35830907       1.35964485       1.35937653       0.00000000
Si       1.36054080      -1.35987291       1.36030521       0.00000000
Si      -2.71427401      -2.71419093       0.00151340       0.00000000
Si       0.00063531      -2.71485882      -2.71493517       0.00000000
Si      -2.71374458       2.71625976      -0.00041275       0.00000000
Si      -2.71499728       0.00048870      -2.71510714       0.00000000
Si       2.71487511       2.71542897       0.00061912       0.00000000
Si       2.71601541      -2.71458189      -0.00103186       0.00000000
