10
Lattice="16.28999089631971 0.0 0.0 0.0 16.28999089631971 0.0 0.0 0.0 34.395419527814205" Properties=species:S:1:pos:R:3:initial_magmoms:R:1 pbc="T T T"
Si       1.39622242      -1.29479436       1.30688909       0.00000000
Si      -1.33132025      -1.38077298      -1.36976395       0.00000000
Si       1.38385831       1.33402068      -1.37162131       0.00000000
Si      -1.36360399       1.42527726       1.56413258       0.00000000
Si       2.68601575       0.03292209       2.67878556       0.00000000
Si      -2.68837195       2.68455942      -0.00171977       0.00000000
Si      -2.68853485      -0.02539611      -2.73192651       0.00000000
Si       0.02842279       2.69063559      -2.73141058       0.00000000
Si      -2.68522798      -2.74271472       0.00791095       0.00000000
Si       2.74702180       2.68688889       0.01375818       0.00000000
