10
Lattice="16.28999089631971 0.0 0.0 0.0 16.28999089631971 0.0 0.0 0.0 34.395419527814205" Properties=species:S:1:pos:R:3:initial_magmoms:R:1 pbc="T T T"
Si       2.06842275       0.41897880       0.93658780       0.00000000
Si      -0.58209057      -2.11318767       0.79302124       0.00000000
Si      -1.38640932       1.47572739       1.16500791       0.00000000
Si      -0.38024118       0.57932127      -2.25764781       0.00000000
Si       1.23178464       0.17720262       3.16565300       0.00000000
Si       1.60697592       1.91415645      -2.40331249       0.00000000
Si      -2.60637461      -2.33183205      -0.36710252       0.00000000
Si      -1.07840452       0.60294177       3.32373443       0.00000000
Si       2.66916537       2.38656645      -0.30068493       0.00000000
Si      -2.62865933       1.39769829      -2.25252289       0.00000000
