10
Lattice="16.28999089631971 0.0 0.0 0.0 16.28999089631971 0.0 0.0 0.0 34.395419527814205" Properties=species:S:1:pos:R:3:initial_magmoms:R:1 pbc="T T T"
Si      -1.28979333      -1.32771645      -1.37189647       0.00000000
Si       0.37615239      -1.59628968       1.63952738       0.00000000
Si       1.50384393       1.37129220      -1.18764010       0.00000000
Si       2.69415423      -1.33799544       1.28198679       0.00000000
Si      -2.31275646      -2.67748956       0.43300418       0.00000000
Si       0.06100605       2.65396680      -2.66502739       0.00000000
Si      -2.68601575      -0.03292209      -2.67878556       0.00000000
Si       2.78304876      -0.06043590      -2.65721962       0.00000000
Si       0.05465295      -2.76556959      -2.68387609       0.00000000
Si       0.05778063      -0.91725732       3.80303487       0.00000000
