10
Lattice="16.28999089631971 0.0 0.0 0.0 16.28999089631971 0.0 0.0 0.0 34.395419527814205" Properties=species:S:1:pos:R:3:initial_magmoms:R:1 pbc="T T T"
Si       1.69895415       0.84367117      -1.35332293       0.00000000
Si      -1.79362904       1.56604797       0.10872398       0.00000000
Si      -1.05298790      -1.82548998      -1.20879330       0.00000000
Si       0.95660256       1.16126427       2.28413230       0.00000000
Si       0.33943147       2.16825017      -2.76535888       0.00000000
Si      -2.37775586      -0.56620782      -2.77464565       0.00000000
Si      -2.57232362       1.25603460       2.39925383       0.00000000
Si       2.97833817       2.28211890       0.09689195       0.00000000
Si      -0.98453844       3.50525681      -1.18643626       0.00000000
Si      -3.67784447       0.73373418      -1.27913197       0.00000000
