10
Lattice="10.86 0.0 0.0 0.0 10.86 0.0 0.0 0.0 10.86" Properties=species:S:1:pos:R:3:initial_magmoms:R:1 pbc="T T T"
Si       1.49028522      -1.02979950      -1.42098756       0.00000000
Si      -1.22471478       1.68520050      -1.42098756       0.00000000
Si       1.49028522       1.68520050       1.29401244       0.00000000
Si      -2.64167328      -2.33552988       0.07781190       0.00000000
Si       0.13278522      -2.38729950      -2.77848756       0.00000000
Si       2.84778522      -2.38729950      -0.06348756       0.00000000
Si       0.29276388      -2.44088274       2.82831324       0.00000000
Si      -2.58221478       0.32770050      -2.77848756       0.00000000
Si       2.84778522       0.32770050       2.65151244       0.00000000
Si      -3.45419676       1.68806754       1.02517314       0.00000000
