10
Lattice="10.86 0.0 0.0 0.0 10.86 0.0 0.0 0.0 10.86" Properties=species:S:1:pos:R:3:initial_magmoms:R:1 pbc="T T T"
Si      -1.39885488       1.30278732      -1.24875882       0.00000000
Si       1.31614512       1.30278732       1.46624118       0.00000000
Si       1.42092240      -1.30816302      -1.45858488       0.00000000
Si      -1.39885488      -1.41221268       1.46624118       0.00000000
Si       2.49760452       2.54731074      -0.02023218       0.00000000
Si       2.64476838      -2.67680538       0.23275152       0.00000000
Si      -2.75635488      -0.05471268      -2.60625882       0.00000000
Si      -2.75635488       2.66028732       0.10874118       0.00000000
Si      -0.04135488       2.66028732       2.82374118       0.00000000
Si       2.67364512      -0.05471268       2.82374118       0.00000000
