10
Lattice="10.86 0.0 0.0 0.0 10.86 0.0 0.0 0.0 10.86" Properties=species:S:1:pos:R:3:initial_magmoms:R:1 pbc="T T T"
Si      -1.25842422      -1.54928760      -1.27643010       0.00000000
Si      -1.42092240       1.30816302       1.45858488       0.00000000
Si       1.22384598      -1.36864236       1.69133640       0.00000000
Si      -0.10477728      -2.81904966      -2.50517394       0.00000000
Si      -2.81977728      -0.10404966      -2.50517394       0.00000000
Si       0.38074074       2.61381738      -2.77401324       0.00000000
Si       2.61022272      -2.81904966       0.20982606       0.00000000
Si      -2.81977728       2.61095034       0.20982606       0.00000000
Si       2.61022272      -0.10404966       2.92482606       0.00000000
Si      -0.10477728       2.61095034       2.92482606       0.00000000
