10
Lattice="10.86 0.0 0.0 0.0 10.86 0.0 0.0 0.0 10.86" Properties=species:S:1:pos:R:3:initial_magmoms:R:1 pbc="T T T"
Si      -1.24370892      -1.23086154       1.42908912       0.00000000
Si       1.46255964      -1.30834764      -1.16374674       0.00000000
Si      -1.24370892       1.48413846      -1.28591088       0.00000000
Si       1.47129108       1.48413846       1.42908912       0.00000000
Si      -2.60120892      -2.58836154       0.07158912       0.00000000
Si      -2.60120892       0.12663846      -2.64341088       0.00000000
Si       0.11379108      -2.58836154       2.78658912       0.00000000
Si      -2.60120892       0.12663846       2.78658912       0.00000000
Si       0.25941282       2.80529004      -2.57894592       0.00000000
Si       2.90500656      -0.07051398      -2.51185284       0.00000000
