10
Lattice="10.86 0.0 0.0 0.0 10.86 0.0 0.0 0.0 10.86" Properties=species:S:1:pos:R:3:initial_magmoms:R:1 pbc="T T T"
Si       1.24988826       1.37311668       1.32461592       0.00000000
Si      -1.46511174      -1.34188332       1.32461592       0.00000000
Si      -1.46511174       1.37311668      -1.39038408       0.00000000
Si       2.46656664       0.08906286      -2.78953218       0.00000000
Si       2.60738826       0.01561668       2.68211592       0.00000000
Si       2.60738826       2.73061668      -0.03288408       0.00000000
Si      -2.67699000      -0.02073174      -2.68341912       0.00000000
Si      -0.10761174      -2.69938332       2.68211592       0.00000000
Si      -0.10761174       2.73061668       2.68211592       0.00000000
Si      -0.10761174       2.73061668      -2.74788408       0.00000000
