10
Lattice="10.86 0.0 0.0 0.0 10.86 0.0 0.0 0.0 10.86" Properties=species:S:1:pos:R:3:initial_magmoms:R:1 pbc="T T T"
Si      -1.48890600       1.11867774      -1.27399746       0.00000000
Si       1.22609400      -1.59632226      -1.27399746       0.00000000
Si       1.42365912       1.02602022       1.81580286       0.00000000
Si      -1.48890600      -1.59632226       1.44100254       0.00000000
Si       2.50738938       2.52636180       0.15464640       0.00000000
Si      -0.13140600       2.47617774      -2.63149746       0.00000000
Si       0.07512948       2.63218164       2.58107448       0.00000000
Si       2.58359400      -0.23882226      -2.63149746       0.00000000
Si      -2.84640600       2.47617774       0.08350254       0.00000000
Si       0.06829854      -2.74508220       2.71415292       0.00000000
