10
Lattice="10.86 0.0 0.0 0.0 10.86 0.0 0.0 0.0 10.86" Properties=species:S:1:pos:R:3:initial_magmoms:R:1 pbc="T T T"
Si       1.53318222      -1.08136278      -1.57749102       0.00000000
Si       1.53318222       1.63363722       1.13750898       0.00000000
Si      -1.18181778       1.63363722      -1.57749102       0.00000000
Si      -2.48644044       0.46008390       2.36906556       0.00000000
Si       0.35287398      -2.63185584       2.65035042       0.00000000
Si       2.89068222      -2.43886278      -0.21999102       0.00000000
Si       0.30258132      -2.70044760      -2.66780244       0.00000000
Si       2.89068222       0.27613722       2.49500898       0.00000000
Si      -2.61552240       0.32632128      -2.86384716       0.00000000
Si       0.17568222       2.99113722       2.49500898       0.00000000
