10
Lattice="16.290000149 0.0 0.0 0.0 16.290000149 0.0 0.0 0.0 29.1751946751" Properties=species:S:1:pos:R:3:initial_magmoms:R:1 pbc="T T T"
Si      -1.35578413      -1.31413060       1.39904978       0.00000000
Si       1.34348518       1.36923967       1.36333934       0.00000000
Si      -1.37411038       1.35120664      -1.36052685       0.00000000
Si       1.42675966      -1.37572309      -1.29320217       0.00000000
Si      -2.67620267      -2.65523744       0.00541492       0.00000000
Si      -2.54773973      -0.11645721      -2.81008473       0.00000000
Si       2.68576490      -0.00767259      -2.71771606       0.00000000
Si       2.71050941       2.71940375       0.01311133       0.00000000
Si      -0.00286704      -2.68164353       2.75423757       0.00000000
Si       2.80209180      -2.64002258       0.12325353       0.00000000
