10
Lattice="16.290000149 0.0 0.0 0.0 16.290000149 0.0 0.0 0.0 29.1751946751" Properties=species:S:1:pos:R:3:initial_magmoms:R:1 pbc="T T T"
Si      -1.25900524      -1.36805050       1.42451389       0.00000000
Si      -1.45196029       1.41652954      -1.21491346       0.00000000
Si       0.95606011      -1.27151596      -1.75398353       0.00000000
Si       1.38842929       1.37906254       1.34099114       0.00000000
Si       2.35102169       0.16311177      -2.92910202       0.00000000
Si      -2.68576490       0.00767259       2.71771606       0.00000000
Si      -2.06861825      -3.22745628       0.24428303       0.00000000
Si       2.73738791       0.01677870       2.71656073       0.00000000
Si      -0.18528246       2.89742088      -2.54060513       0.00000000
Si       0.02474451       2.72707634       2.73082740       0.00000000
