10
Lattice="16.290000149 0.0 0.0 0.0 16.290000149 0.0 0.0 0.0 29.1751946751" Properties=species:S:1:pos:R:3:initial_magmoms:R:1 pbc="T T T"
Si       0.33050781      -0.88505200      -2.13495322       0.00000000
Si       1.62593749       1.67881484       0.07039974       0.00000000
Si      -1.79277968       1.51451389       0.17686003       0.00000000
Si       0.20496078      -1.51194007       1.84282200       0.00000000
H       -0.91766458      -1.44777376       2.85916908       0.00000000
Si       1.07733916       2.72083727       2.08103746       0.00000000
Si       2.27333468      -0.82732024       2.73774192       0.00000000
Si       1.38748447       0.87612508      -3.32101241       0.00000000
H       -1.84521719       0.32369859       3.21816985       0.00000000
Si       3.53186751      -1.07483050       0.79980879       0.00000000
