10
Lattice="16.290000149 0.0 0.0 0.0 16.290000149 0.0 0.0 0.0 29.1751946751" Properties=species:S:1:pos:R:3:initial_magmoms:R:1 pbc="T T T"
Si       1.35584929       1.34039008      -1.31487351       0.00000000
Si       1.43360146      -1.31970178       1.28227898       0.00000000
Si      -1.33569856       1.44186049       1.28843495       0.00000000
Si      -1.30486159      -1.29490840      -1.47541877       0.00000000
Si      -0.05048271       2.70451469      -2.56840325       0.00000000
Si       0.05356152      -2.63782343       2.64525655       0.00000000
Si      -2.69975801       0.08024454       2.61733589       0.00000000
Si      -2.67188582      -2.64507248      -0.12519076       0.00000000
Si       2.77977450      -2.59898807      -0.17788116       0.00000000
Si       2.77114080       0.08423559       2.61873630       0.00000000
