10
Lattice="16.290000149 0.0 0.0 0.0 16.290000149 0.0 0.0 0.0 29.1751946751" Properties=species:S:1:pos:R:3:initial_magmoms:R:1 pbc="T T T"
Si       1.34705269       1.35622396       1.36253994       0.00000000
Si      -1.35291709       1.36751293      -1.35518779       0.00000000
Si      -1.36028017      -1.34402275       1.37178848       0.00000000
Si       1.37766160      -1.34897491      -1.35025718       0.00000000
Si      -0.05093883      -2.75335212      -2.59197973       0.00000000
Si       2.67856472      -2.69755886       0.06809490       0.00000000
Si      -0.02295261       2.72018567       2.69756767       0.00000000
Si      -2.67333563       0.02640609      -2.74882266       0.00000000
Si       2.69294879      -0.00203625       2.73216946       0.00000000
Si       2.69829191       2.73191448       0.01616306       0.00000000
