10
Lattice="16.290000149 0.0 0.0 0.0 16.290000149 0.0 0.0 0.0 29.1751946751" Properties=species:S:1:pos:R:3:initial_magmoms:R:1 pbc="T T T"
Si      -0.93193299       0.81459775       1.99473724       0.00000000
Si       1.36336061       1.38232054      -1.33549454       0.00000000
Si      -1.87056280      -0.89905651      -1.11816851       0.00000000
Si       1.84165131      -1.17292888       0.93491911       0.00000000
H        2.64305415       1.42299667      -0.51292910       0.00000000
H       -2.91473552       0.21631817      -1.09873783       0.00000000
Si       0.52460154      -2.60240897       2.27846600       0.00000000
Si       1.96677480      -0.13837378      -3.09283321       0.00000000
Si       0.40171140       2.79192684       2.48108773       0.00000000
Si      -0.64657992      -1.01096230       3.56445023       0.00000000
