10
Lattice="16.290000149 0.0 0.0 0.0 16.290000149 0.0 0.0 0.0 29.1751946751" Properties=species:S:1:pos:R:3:initial_magmoms:R:1 pbc="T T T"
Si       1.35881407      -1.36249561       1.33351062       0.00000000
Si      -1.35306370      -1.36656811      -1.34071690       0.00000000
Si       1.37679823       1.33468858      -1.35877634       0.00000000
Si      -1.37886706       1.33936381       1.36204396       0.00000000
Si       2.64919385       0.06768495       2.65584715       0.00000000
Si      -2.68442424      -0.00931788      -2.71189270       0.00000000
Si       0.03077181      -2.72641986      -2.66993877       0.00000000
Si      -2.70775966       2.69671178      -0.00493061       0.00000000
Si       0.03264516       2.71495658      -2.70243993       0.00000000
Si      -2.70452936      -2.71665889       0.03148004       0.00000000
