10
Lattice="16.290000149 0.0 0.0 0.0 16.290000149 0.0 0.0 0.0 29.1751946751" Properties=species:S:1:pos:R:3:initial_magmoms:R:1 pbc="T T T"
H        0.42854103      -0.42613011       2.05959369       0.00000000
Si       1.34662915      -1.34348518      -1.41841044       0.00000000
Si      -1.37380576       1.36510201      -1.39121916       0.00000000
Si       1.41327154       1.42086268       1.31355479       0.00000000
Si      -1.54424640      -1.43488837       1.24009165       0.00000000
Si      -0.14239089       2.65054592       2.53538277       0.00000000
Si      -0.12504204      -2.68868081       2.61917393       0.00000000
Si       2.74442520      -2.71059086      -0.13452682       0.00000000
Si       2.75245617       2.71335489      -0.08011508       0.00000000
Si      -0.04178385      -2.72236853      -2.74488984       0.00000000
