10
Lattice="16.290000149 0.0 0.0 0.0 16.290000149 0.0 0.0 0.0 29.1751946751" Properties=species:S:1:pos:R:3:initial_magmoms:R:1 pbc="T T T"
Si       1.37077093      -1.34594497      -1.33823700       0.00000000
Si       1.37813401       1.33509583       1.34485977       0.00000000
Si      -1.34972425      -1.36441783       1.35620892       0.00000000
Si      -1.34589610       1.35826021      -1.36962951       0.00000000
Si      -0.00099369       2.70150104       2.65575962       0.00000000
Si      -0.01438407      -2.69552261      -2.66407455       0.00000000
Si      -2.72036486      -0.00482184       2.68662698       0.00000000
Si       2.74119978       0.01221750      -2.67600721       0.00000000
Si       2.73440685       2.69035868      -0.01301214       0.00000000
Si      -2.69294879       0.00203625      -2.73216946       0.00000000
