10
Lattice="16.290000149 0.0 0.0 0.0 16.290000149 0.0 0.0 0.0 29.1751946751" Properties=species:S:1:pos:R:3:initial_magmoms:R:1 pbc="T T T"
Si      -1.39331629       1.28456425      -1.35830954       0.00000000
Si       1.43712010      -1.37013562      -1.23504434       0.00000000
Si      -1.37818288      -1.31639491       1.35714253       0.00000000
Si       0.87750973       1.88916761       1.07037954       0.00000000
Si      -2.43678854       0.14610501       2.83968005       0.00000000
Si       0.05460408      -2.71793765      -2.57686989       0.00000000
Si      -2.57132765       2.73632906       0.05464514       0.00000000
Si      -0.01065366       2.61951347      -2.70241076       0.00000000
Si       2.77695633      -0.03732039      -2.60913766       0.00000000
Si      -2.74603791      -0.05703129      -2.67072650       0.00000000
