10
Lattice="16.290000149 0.0 0.0 0.0 16.290000149 0.0 0.0 0.0 29.1751946751" Properties=species:S:1:pos:R:3:initial_magmoms:R:1 pbc="T T T"
Si       1.37360539       1.34460919      -1.33861628       0.00000000
Si       1.35526285      -1.39450546       1.31031634       0.00000000
Si      -1.36001953      -1.35252613      -1.35495439       0.00000000
Si      -1.34781832       1.37383345       1.34669781       0.00000000
Si       0.00125433       2.69232977      -2.67696999       0.00000000
Si      -2.73116514       0.00866628       2.65558457       0.00000000
Si       2.77307931      -0.08394237       2.62357938       0.00000000
Si       0.00969255      -2.73175157      -2.67600721       0.00000000
Si       0.00713502      -2.75172312       2.66518321       0.00000000
Si       0.02256165       2.73790920       2.69088656       0.00000000
