10
Lattice="16.290000149 0.0 0.0 0.0 16.290000149 0.0 0.0 0.0 29.1751946751" Properties=species:S:1:pos:R:3:initial_magmoms:R:1 pbc="T T T"
Si       1.43272995      -1.20875059       1.38576340       0.00000000
Si      -1.45788171       1.21777525       1.36910436       0.00000000
Si      -1.35738283      -1.40776552      -1.31437170       0.00000000
Si       1.36755366       1.42760674      -1.30243904       0.00000000
H       -1.18837832      -1.44914212       3.06847192       0.00000000
Si      -0.04695918       2.62894538       2.55781849       0.00000000
Si      -0.04687285      -2.41026842       2.77531957       0.00000000
Si       2.57716762      -2.63217080      -0.08145714       0.00000000
Si       2.56871311       0.03106503      -2.77794534       0.00000000
Si      -2.75580376       2.63200790       0.01674656       0.00000000
