10
Lattice="16.290000149 0.0 0.0 0.0 16.290000149 0.0 0.0 0.0 29.1751946751" Properties=species:S:1:pos:R:3:initial_magmoms:R:1 pbc="T T T"
Si      -1.34305024      -1.34507041       1.36776230       0.00000000
Si      -1.40960466       1.33439841      -1.32767558       0.00000000
Si       1.35257500      -1.37216068      -1.34955698       0.00000000
Si       1.33908688       1.34843061       1.39118998       0.00000000
Si       2.65373876       2.68856169      -0.02564500       0.00000000
Si      -0.05813901       2.68448919      -2.69987252       0.00000000
Si      -2.71800726       0.02966095       2.69196604       0.00000000
Si       2.71630865      -0.02297400      -2.69707170       0.00000000
Si      -2.77920435      -0.04908687      -2.64572335       0.00000000
Si      -0.07807797       2.68880604       2.74200150       0.00000000
