10
Lattice="16.290000149 0.0 0.0 0.0 16.290000149 0.0 0.0 0.0 29.1751946751" Properties=species:S:1:pos:R:3:initial_magmoms:R:1 pbc="T T T"
Si       1.37728693       1.33869592       1.33281042       0.00000000
Si       1.37912770      -1.36640521      -1.31089985       0.00000000
Si      -1.35356869      -1.34982199       1.36309427       0.00000000
Si      -1.35027811       1.37549503      -1.34328431       0.00000000
Si      -0.05523939       2.66035250       2.61619806       0.00000000
Si       0.00099369      -2.70150104      -2.65575962       0.00000000
Si       2.73540054      -0.01114236      -2.66877176       0.00000000
Si      -2.71490771       0.02072088      -2.69036140       0.00000000
Si       0.01001835      -2.67709862       2.74173892       0.00000000
Si       2.72541477       2.69591357      -0.02205645       0.00000000
