10
Lattice="16.290000149 0.0 0.0 0.0 16.290000149 0.0 0.0 0.0 29.1751946751" Properties=species:S:1:pos:R:3:initial_magmoms:R:1 pbc="T T T"
Si       1.34688979      -1.34723188      -1.36679952       0.00000000
Si      -1.35392707      -1.37472940       1.34296339       0.00000000
Si      -1.35518140       1.32949207      -1.38835999       0.00000000
Si       1.36466218       1.33955929       1.37257621       0.00000000
Si      -0.02487483       2.68139918       2.70430714       0.00000000
Si      -2.72917776      -0.01684386       2.66279084       0.00000000
Si       2.68224626      -2.72456768      -0.01517110       0.00000000
Si      -0.01166364      -2.71251308      -2.69777190       0.00000000
Si      -2.73613359       2.67555107      -0.06873676       0.00000000
Si       2.70972749       2.71138907       0.00974451       0.00000000
