10
Lattice="16.290000149 0.0 0.0 0.0 16.290000149 0.0 0.0 0.0 29.1751946751" Properties=species:S:1:pos:R:3:initial_magmoms:R:1 pbc="T T T"
Si       0.84924658      -1.87794380      -1.10909503       0.00000000
Si       1.48584349       1.25328745       1.37336394       0.00000000
Si      -1.38680029       1.32002758      -1.42701712       0.00000000
Si      -1.31308804      -1.36440154       1.48399628       0.00000000
H        1.37515294      -1.61368741      -2.49587955       0.00000000
H        2.64929159       0.14041980      -2.07855757       0.00000000
Si       0.00434943       2.55309328       2.71186352       0.00000000
Si      -2.79847542       2.50105259       0.04093280       0.00000000
Si       2.54099567      -2.80515432       0.19690339       0.00000000
Si      -0.94887622      -3.47444526      -1.22996786       0.00000000
