10
Lattice="16.290000149 0.0 0.0 0.0 16.290000149 0.0 0.0 0.0 29.1751946751" Properties=species:S:1:pos:R:3:initial_magmoms:R:1 pbc="T T T"
Si      -0.54859834       1.04202244       2.01063772       0.00000000
Si      -1.62593749      -1.67881484      -0.07039974       0.00000000
Si       2.19077696      -0.72633853      -0.47345506       0.00000000
Si       0.02632464       2.14175058      -0.98454612       0.00000000
Si       0.67930930       2.83067423       1.15492926       0.00000000
Si       1.89038936       0.16640235      -2.71215527       0.00000000
Si      -3.41871717      -0.16430094       0.10646029       0.00000000
Si       1.90593002      -2.75364534       0.72940904       0.00000000
Si      -0.23845302      -0.80268976      -3.39141215       0.00000000
Si      -1.29542968      -2.56386683      -2.20535297       0.00000000
