10
Lattice="16.290000149 0.0 0.0 0.0 16.290000149 0.0 0.0 0.0 29.1751946751" Properties=species:S:1:pos:R:3:initial_magmoms:R:1 pbc="T T T"
Si      -1.35503479      -1.35509995       1.33202269       0.00000000
Si      -1.37666791       1.34590751      -1.33523196       0.00000000
Si       1.30574125       1.31250812       1.44819831       0.00000000
Si       1.35112519      -1.38631159      -1.33677824       0.00000000
Si       0.03502350      -2.80714170       2.52811814       0.00000000
Si       2.67059891       2.67146228       0.07010799       0.00000000
Si      -0.01288539       2.69355152      -2.68516822       0.00000000
Si       2.70961346      -0.02257794      -2.67918730       0.00000000
Si      -2.72627813      -0.02274084      -2.68823161       0.00000000
Si      -2.65655693      -0.00754227       2.76356197       0.00000000
