10
Lattice="16.290000149 0.0 0.0 0.0 16.290000149 0.0 0.0 0.0 29.1751946751" Properties=species:S:1:pos:R:3:initial_magmoms:R:1 pbc="T T T"
Si      -1.35584929      -1.34039008       1.31487351       0.00000000
Si      -1.40633200       1.36412461      -1.25352974       0.00000000
Si       1.33784884      -1.15421167      -1.55654623       0.00000000
Si       1.42236136       1.46007271       1.22402195       0.00000000
Si       0.42570657       2.38612664      -2.19616570       0.00000000
Si       2.17170137       0.84362653      -2.64661991       0.00000000
Si       0.07775217      -2.66009186       2.59715249       0.00000000
Si      -2.69154785       0.10147041       2.60330846       0.00000000
Si      -2.66071088      -2.63529848      -0.16054526       0.00000000
Si       2.76532527      -2.52112187      -0.22272344       0.00000000
