10
Lattice="16.290000149 0.0 0.0 0.0 16.290000149 0.0 0.0 0.0 29.1751946751" Properties=species:S:1:pos:R:3:initial_magmoms:R:1 pbc="T T T"
Si       1.34732962      -1.34470693       1.36429045       0.00000000
Si      -1.35387820       1.32954094       1.40046769       0.00000000
Si      -1.42236136      -1.46007271      -1.22402195       0.00000000
Si       1.46007271       1.43714796      -1.21415782       0.00000000
Si      -0.99665479       0.92605393      -3.42018765       0.00000000
Si       0.04316850       2.77994554      -2.46873495       0.00000000
Si      -2.82869337      -0.09594810      -2.47755170       0.00000000
Si       2.69044013      -2.64829790      -0.05887554       0.00000000
Si      -0.08451252      -2.61428438      -2.78056819       0.00000000
Si      -0.00706986      -2.71622720       2.70958786       0.00000000
