10
Lattice="16.290000149 0.0 0.0 0.0 16.290000149 0.0 0.0 0.0 29.1751946751" Properties=species:S:1:pos:R:3:initial_magmoms:R:1 pbc="T T T"
Si       1.30828249      -1.42658047      -1.29864802       0.00000000
Si       1.41299461       1.29578806       1.34368226       0.00000000
Si      -1.29963250      -1.48423078       1.27345465       0.00000000
Si      -1.27912339       1.49506363      -1.33724680       0.00000000
Si       2.57496032       0.05431086      -2.62433969       0.00000000
Si      -2.68379381      -0.11271051       2.62414071       0.00000000
Si      -2.63775827       0.14832045      -2.67749689       0.00000000
Si       0.03157002       2.65269620       2.66772554       0.00000000
Si      -0.06761979      -2.45832392      -2.92919130       0.00000000
Si      -2.72375318       2.68892516       0.01938283       0.00000000
