10
Lattice="16.290000149 0.0 0.0 0.0 16.290000149 0.0 0.0 0.0 29.1751946751" Properties=species:S:1:pos:R:3:initial_magmoms:R:1 pbc="T T T"
Si      -1.41299461      -1.29578806      -1.34368226       0.00000000
Si      -1.38142459       1.35690814       1.32404327       0.00000000
Si       1.32180319       1.40315545      -1.34154314       0.00000000
Si       1.37199268      -1.41182173       1.30341057       0.00000000
Si       2.62637156       2.58760136       0.21042609       0.00000000
Si       2.66307293       0.04706181      -2.68419668       0.00000000
Si      -0.10471212      -2.72236853      -2.64233028       0.00000000
Si      -2.73461862      -0.04092048       2.64389407       0.00000000
Si      -2.69211800       0.19927557      -2.68092906       0.00000000
Si      -0.04393413       2.68167611       2.72829791       0.00000000
