10
Lattice="16.290000149 0.0 0.0 0.0 16.290000149 0.0 0.0 0.0 29.1751946751" Properties=species:S:1:pos:R:3:initial_magmoms:R:1 pbc="T T T"
Si      -2.04558419       0.61873330      -0.90737773       0.00000000
Si       1.02630259      -1.62201486      -1.32020673       0.00000000
Si      -0.52567830      -1.25350248       1.93349850       0.00000000
Si       1.51163056       1.85091543       0.06593594       0.00000000
Si      -3.27349182      -1.16991849      -0.05166927       0.00000000
Si       2.31155102      -0.18082259      -2.60350685       0.00000000
Si       2.54457947      -2.61829498       0.19083495       0.00000000
Si       0.76732417       3.17110591      -1.72381638       0.00000000
Si      -2.14835780       0.27347001       3.00256516       0.00000000
Si       0.88202206       2.92121731       2.11137966       0.00000000
