10
Lattice="16.290000149 0.0 0.0 0.0 16.290000149 0.0 0.0 0.0 29.1751946751" Properties=species:S:1:pos:R:3:initial_magmoms:R:1 pbc="T T T"
Si      -1.59757986       1.02654694      -1.35384573       0.00000000
Si       1.38463372      -1.46912995      -1.22328674       0.00000000
Si      -0.84872530      -1.48030489       1.63302317       0.00000000
Si       0.43499187       1.81763822       1.48040773       0.00000000
H        0.34702587      -1.11319345       2.52444207       0.00000000
Si      -1.87707228       2.00238311       2.07196398       0.00000000
Si      -0.30307545       2.50181822      -2.63807945       0.00000000
Si      -3.04917852       2.16539714       0.05645400       0.00000000
Si       2.70093089      -0.11031588      -2.60674529       0.00000000
Si      -0.11789073      -2.81114904      -2.52590083       0.00000000
