10
Lattice="16.290000149 0.0 0.0 0.0 16.290000149 0.0 0.0 0.0 29.1751946751" Properties=species:S:1:pos:R:3:initial_magmoms:R:1 pbc="T T T"
Si       1.34747623       1.33289668       1.38786985       0.00000000
Si       1.33029028      -1.44024778      -1.31377360       0.00000000
Si      -1.34140006      -1.41825628       1.35971578       0.00000000
Si      -1.42747642       1.36691020      -1.33382280       0.00000000
H        0.48519765       1.65081233      -3.21142454       0.00000000
Si      -2.76532527       2.52112187       0.22272344       0.00000000
Si       2.65007351       2.68693778      -0.04598302       0.00000000
Si      -2.73562860      -0.07998390      -2.70310513       0.00000000
Si      -0.06501339      -2.76187179      -2.67836456       0.00000000
Si       2.69501762      -0.05147640       2.75084742       0.00000000
