10
Lattice="16.290000149 0.0 0.0 0.0 16.290000149 0.0 0.0 0.0 29.1751946751" Properties=species:S:1:pos:R:3:initial_magmoms:R:1 pbc="T T T"
Si       1.36405945       1.36161595      -1.32890094       0.00000000
Si      -1.34974054       1.36482508       1.35577130       0.00000000
Si       1.38360745      -1.33884253       1.34897348       0.00000000
Si      -1.33496551      -1.35140212      -1.39349482       0.00000000
Si       2.69975801      -0.08024454      -2.61733589       0.00000000
Si      -2.69029352      -2.69493617      -0.01788439       0.00000000
Si      -0.02103039       2.71834490      -2.66786733       0.00000000
Si       0.02319696      -2.70124040       2.69301634       0.00000000
Si      -2.71805168       0.02094894       2.69885138       0.00000000
Si       0.01795158       2.72833068       2.70515323       0.00000000
