10
Lattice="16.290000149 0.0 0.0 0.0 16.290000149 0.0 0.0 0.0 29.1751946751" Properties=species:S:1:pos:R:3:initial_magmoms:R:1 pbc="T T T"
Si       1.29790576       1.28392992       1.50516288       0.00000000
Si      -1.33550308      -1.36441197       1.40789570       0.00000000
Si       1.48149406      -1.29980583      -1.33849958       0.00000000
Si      -1.35676153       1.38821850      -1.39600389       0.00000000
Si      -0.00434943      -2.55309328      -2.71186352       0.00000000
Si      -2.60895755       2.73050311       0.08900418       0.00000000
Si       2.69648372      -2.71361494       0.11151868       0.00000000
Si       2.28633410       3.07153426       0.35335829       0.00000000
Si       2.36903843       2.37854137      -1.87564409       0.00000000
Si       3.09767385       0.18809835      -2.27741570       0.00000000
