10
Lattice="16.290000149 0.0 0.0 0.0 16.290000149 0.0 0.0 0.0 29.1751946751" Properties=species:S:1:pos:R:3:initial_magmoms:R:1 pbc="T T T"
Si      -1.31554783       1.32307870       1.40045602       0.00000000
Si       0.98842834       1.78760434      -1.15180459       0.00000000
Si       1.38261376      -1.32397849       1.36584257       0.00000000
Si      -1.29790576      -1.28392992      -1.50516288       0.00000000
Si      -2.51862950       2.72105393      -0.03965492       0.00000000
Si       1.07113267       1.09461145      -3.38080697       0.00000000
Si      -2.63340884      -2.64834189      -0.09726718       0.00000000
Si      -0.64459531       3.52294548      -1.23523486       0.00000000
Si       0.11305260       2.72745590       2.64217857       0.00000000
Si       0.03284064      -2.71902420       2.67619684       0.00000000
