10
Lattice="16.290000149 0.0 0.0 0.0 16.290000149 0.0 0.0 0.0 29.1751946751" Properties=species:S:1:pos:R:3:initial_magmoms:R:1 pbc="T T T"
Si       1.30090312      -1.34858395       1.41835209       0.00000000
Si      -1.37766160       1.34897491       1.35025718       0.00000000
Si      -1.42860043      -1.40437720      -1.24172254       0.00000000
Si       1.42729723       1.39059586      -1.28072686       0.00000000
Si      -2.63168210      -0.00640197      -2.68183349       0.00000000
Si       2.71445159      -0.05854626      -2.60855416       0.00000000
Si       0.05196510       2.65489535      -2.69718256       0.00000000
Si      -0.11305260      -2.72745590      -2.64217857       0.00000000
Si       2.63062325      -2.76890092       0.13289301       0.00000000
Si      -0.03060891       2.70519887       2.71279713       0.00000000
