10
Lattice="16.290000149 0.0 0.0 0.0 16.290000149 0.0 0.0 0.0 29.1751946751" Properties=species:S:1:pos:R:3:initial_magmoms:R:1 pbc="T T T"
Si       1.33030657       1.33206589      -1.39877553       0.00000000
Si      -1.19953045       1.47263230       1.42923444       0.00000000
Si       1.47108475      -1.20925558       1.45397500       0.00000000
Si      -1.56366082      -1.12552498      -1.46541168       0.00000000
H        1.82579951      -3.02050812      -0.79411962       0.00000000
Si      -0.17572023       2.64117917      -2.69021553       0.00000000
Si      -2.52625322       0.09042579       2.80468148       0.00000000
Si       2.92205136       2.46137015      -0.05724173       0.00000000
Si      -2.59885775       2.89732314       0.20691048       0.00000000
H        2.02129580       3.20342853       0.92091502       0.00000000
