10
Lattice="16.290000149 0.0 0.0 0.0 16.290000149 0.0 0.0 0.0 29.1751946751" Properties=species:S:1:pos:R:3:initial_magmoms:R:1 pbc="T T T"
Si      -1.37912770       1.36640521       1.31089985       0.00000000
Si      -1.37813401      -1.33509583      -1.34485977       0.00000000
Si       1.35627283       1.35526285      -1.35787191       0.00000000
Si       1.35469270      -1.35166276       1.36875426       0.00000000
Si      -0.00184077       2.70510113       2.64371027       0.00000000
Si      -0.00736308      -2.68104080      -2.68309678       0.00000000
Si      -2.73269639       0.01658322       2.67399412       0.00000000
Si       2.71523351      -2.70329294       0.01604636       0.00000000
Si       0.00071676       2.72507267      -2.69748015       0.00000000
Si      -2.72785826      -2.69951366       0.01134915       0.00000000
