10
Lattice="16.290000149 0.0 0.0 0.0 16.290000149 0.0 0.0 0.0 29.1751946751" Properties=species:S:1:pos:R:3:initial_magmoms:R:1 pbc="T T T"
Si      -1.33983622      -1.33281523       1.37409332       0.00000000
Si       1.37525068      -1.35788554      -1.31982746       0.00000000
Si       1.35689185       1.30707703       1.39069400       0.00000000
Si      -1.35508366       1.33517728      -1.37666074       0.00000000
Si      -0.07063344       2.75147877       2.51338467       0.00000000
Si       0.00144981      -2.72158661      -2.65161674       0.00000000
Si      -2.77695633       0.03732039       2.60913766       0.00000000
Si       2.72917776       0.01684386      -2.66279084       0.00000000
Si       2.70430292       2.69824304       0.04151630       0.00000000
Si      -2.72235224      -2.68061726       0.03226777       0.00000000
