10
Lattice="16.290000149 0.0 0.0 0.0 16.290000149 0.0 0.0 0.0 29.1751946751" Properties=species:S:1:pos:R:3:initial_magmoms:R:1 pbc="T T T"
Si       1.32471910       1.33613171       1.33730632       0.00000000
Si      -1.41690421       1.34279758      -1.25457713       0.00000000
Si       1.23158917      -1.20141537      -1.59558556       0.00000000
Si      -1.46007271      -1.43714796       1.21415782       0.00000000
Si      -2.45672750      -0.51109403      -2.20602983       0.00000000
Si      -0.71073271      -2.05359414      -2.65648404       0.00000000
Si       2.62372804       2.62636000      -0.13470479       0.00000000
Si       2.64187476      -0.09933170       2.61240820       0.00000000
Si       2.53296470      -2.73140476      -0.27857059       0.00000000
Si      -0.11811879       2.66791579       2.61938107       0.00000000
