10
Lattice="16.290000149 0.0 0.0 0.0 16.290000149 0.0 0.0 0.0 29.1751946751" Properties=species:S:1:pos:R:3:initial_magmoms:R:1 pbc="T T T"
Si       1.32124933       1.32603859      -1.36489730       0.00000000
Si      -1.25781607       1.40124952       1.36428170       0.00000000
Si      -1.72493183      -0.93999817      -1.27596664       0.00000000
Si       1.45040820      -1.38447082       1.22604088       0.00000000
Si      -3.43002243       0.72826075      -1.14893959       0.00000000
Si      -2.57267972       2.66460419      -0.10843836       0.00000000
Si      -2.59022405      -2.66803324       0.10616853       0.00000000
Si       2.58409738      -0.10194282      -2.69089823       0.00000000
Si      -2.66877443      -0.00322542       2.62146710       0.00000000
Si       2.81265097       0.01093059       2.54386108       0.00000000
