10
Lattice="16.290000149 0.0 0.0 0.0 16.290000149 0.0 0.0 0.0 29.1751946751" Properties=species:S:1:pos:R:3:initial_magmoms:R:1 pbc="T T T"
Si       1.34656562       1.34759026      -1.36869591       0.00000000
Si       1.35106166      -1.35927019       1.35938902       0.00000000
Si      -1.33035411       1.34943103       1.39098576       0.00000000
Si      -1.36417185      -1.32976900      -1.37925733       0.00000000
Si       2.67762153       2.69343749       0.04519238       0.00000000
Si      -2.70479000      -2.68304447       0.00612679       0.00000000
Si      -2.69819255       2.70588305       0.04942278       0.00000000
Si       2.69182641       0.00363267       2.72367947       0.00000000
Si       2.69816322      -0.02156796      -2.72744307       0.00000000
Si      -2.67809069      -0.00425169       2.74877014       0.00000000
