10
Lattice="16.290000149 0.0 0.0 0.0 16.290000149 0.0 0.0 0.0 29.1751946751" Properties=species:S:1:pos:R:3:initial_magmoms:R:1 pbc="T T T"
Si       1.33887674      -1.36076887       1.36154799       0.00000000
Si      -1.35203580      -1.35237952      -1.36146046       0.00000000
Si      -1.32784515       1.34890975       1.39544956       0.00000000
Si       1.35858764       1.35193969      -1.36271499       0.00000000
Si       2.68972500       0.02482596       2.68510987       0.00000000
Si      -2.67056471       2.70695819       0.02666613       0.00000000
Si       0.03562297      -2.71186148      -2.68659780       0.00000000
Si      -2.69068286      -2.70971120       0.01890553       0.00000000
Si      -2.69726402       0.02816541      -2.71597722       0.00000000
Si       2.69935239       2.71484255       0.00157546       0.00000000
