10
Lattice="16.290000149 0.0 0.0 0.0 16.290000149 0.0 0.0 0.0 29.1751946751" Properties=species:S:1:pos:R:3:initial_magmoms:R:1 pbc="T T T"
Si       0.43668603       2.21796497      -0.60264282       0.00000000
Si       1.06883578       0.08773794       2.10239370       0.00000000
Si      -0.43499187      -1.81763822      -1.48040773       0.00000000
Si      -2.31206416       0.18474489       0.59155625       0.00000000
H        2.73036693       1.03566934      -0.77133380       0.00000000
H       -0.08796600      -2.93083167       1.04403434       0.00000000
H        1.80281432       2.80714170      -0.41233303       0.00000000
Si      -1.28371717      -3.29794311       0.15261544       0.00000000
Si      -2.09184453       2.03729258       2.03097283       0.00000000
Si      -2.03257174      -0.79109128      -2.83425346       0.00000000
