10
Lattice="16.290000149 0.0 0.0 0.0 16.290000149 0.0 0.0 0.0 29.1751946751" Properties=species:S:1:pos:R:3:initial_magmoms:R:1 pbc="T T T"
Si       1.35604477      -1.39551056      -1.28869752       0.00000000
Si       1.39277872       1.34376211       1.32834661       0.00000000
Si      -1.32435909      -1.38389253       1.36137293       0.00000000
Si      -1.29444902       1.35311257      -1.43104330       0.00000000
Si      -2.64491740       2.67957470      -0.02450716       0.00000000
Si       2.70212006      -0.06556725      -2.63542159       0.00000000
Si       0.03368772       2.70071912       2.68035431       0.00000000
Si      -2.65669180      -0.04228884      -2.74886350       0.00000000
Si      -2.70497081      -0.03627783       2.70171055       0.00000000
Si      -2.63854508      -2.76798054      -0.00175051       0.00000000
