10
Lattice="16.290000149 0.0 0.0 0.0 16.290000149 0.0 0.0 0.0 29.1751946751" Properties=species:S:1:pos:R:3:initial_magmoms:R:1 pbc="T T T"
Si      -1.36612828      -0.58917673      -0.19030979       0.00000000
H        0.92755261      -1.77147236      -0.35900077       0.00000000
H        1.59005062      -0.85864591       1.24881503       0.00000000
Si      -2.72086985       0.76927897       1.13491507       0.00000000
Si       1.06414426      -1.12290229       2.63559956       0.00000000
Si       2.05017797      -1.83563867      -1.37534785       0.00000000
Si      -1.86720869      -0.17480799      -2.47901629       0.00000000
Si       0.05243751       1.19081530      -3.04130982       0.00000000
Si      -1.17190261       2.07506909       2.31767746       0.00000000
Si      -1.80281432      -2.80714170       0.41233303       0.00000000
