10
Lattice="16.290000149 0.0 0.0 0.0 16.290000149 0.0 0.0 0.0 29.1751946751" Properties=species:S:1:pos:R:3:initial_magmoms:R:1 pbc="T T T"
Si      -1.54896724      -1.30579012      -1.18276239       0.00000000
Si      -1.41167512       1.18102501       1.46794992       0.00000000
Si       1.38680029      -1.32002758       1.42701712       0.00000000
Si       0.78187114       1.50394983      -1.70645714       0.00000000
H        1.17190261      -2.07506909      -2.31767746       0.00000000
Si      -1.28655163       2.21558011      -2.55980241       0.00000000
Si      -0.19422567      -2.66424581      -2.50798726       0.00000000
Si      -2.57778012       0.23307732      -2.67308969       0.00000000
Si       0.03438819       2.62128420       2.74287675       0.00000000
H       -0.61027228       3.77695056       0.02010171       0.00000000
