10
Lattice="16.290000149 0.0 0.0 0.0 16.290000149 0.0 0.0 0.0 29.1751946751" Properties=species:S:1:pos:R:3:initial_magmoms:R:1 pbc="T T T"
Si       1.43488837       1.32484942       1.21596376       0.00000000
Si      -1.24416505       1.38932524      -1.36866673       0.00000000
Si       1.52059006      -1.31952422      -1.19396567       0.00000000
Si      -1.15531939      -1.43380998       1.50827004       0.00000000
H        2.07599762       0.48000114       2.29471659       0.00000000
Si       2.50053131      -2.17933649       0.79414880       0.00000000
Si       0.75579085      -2.50844174       2.28663506       0.00000000
Si       0.00514764       2.55492362       2.50016831       0.00000000
Si      -2.40507191      -2.72623454       0.01350812       0.00000000
Si      -2.53454483      -0.04085532      -2.69100326       0.00000000
