10
Lattice="16.290000149 0.0 0.0 0.0 16.290000149 0.0 0.0 0.0 29.1751946751" Properties=species:S:1:pos:R:3:initial_magmoms:R:1 pbc="T T T"
Si       0.61748875      -1.30159219       0.43896998       0.00000000
Si      -1.51483806       1.47507580       0.62890050       0.00000000
H        2.01609929       0.35693019      -1.41794364       0.00000000
Si      -0.03523527       2.67659363      -0.76065568       0.00000000
Si       1.10920240       1.25317342      -2.22787622       0.00000000
Si      -2.82890872      -0.22566537      -0.51074096       0.00000000
Si      -1.61099956      -1.50845564      -2.11820666       0.00000000
Si      -0.23776884      -2.96121252      -0.95662546       0.00000000
Si      -0.22442733       1.62671941       2.65532199       0.00000000
Si       2.92348488      -1.18356625       0.07019552       0.00000000
