10
Lattice="16.290000149 0.0 0.0 0.0 16.290000149 0.0 0.0 0.0 29.1751946751" Properties=species:S:1:pos:R:3:initial_magmoms:R:1 pbc="T T T"
Si       1.36939117       1.37319814       1.32052766       0.00000000
Si      -1.32514264       1.38419389      -1.35874717       0.00000000
Si       1.38061172      -1.34761470      -1.34033762       0.00000000
Si      -1.35153244      -1.35138095       1.37348064       0.00000000
Si      -2.68265351      -2.70562241      -0.00991957       0.00000000
Si      -2.69356781       0.03554478      -2.69648819       0.00000000
Si       2.70075170       0.01594791       2.69170346       0.00000000
Si       0.00377928       2.71932230       2.67428587       0.00000000
Si       2.70497081       0.03627783      -2.70171055       0.00000000
Si      -2.69013062       2.73137691      -0.00831493       0.00000000
