10
Lattice="16.290000149 0.0 0.0 0.0 16.290000149 0.0 0.0 0.0 29.1751946751" Properties=species:S:1:pos:R:3:initial_magmoms:R:1 pbc="T T T"
Si       1.32092027      -1.33382521      -1.40697376       0.00000000
Si       1.39184856       1.37209042       1.31288376       0.00000000
Si      -1.33894027       1.37039626      -1.37243033       0.00000000
Si      -1.35674524      -1.34614045       1.39673327       0.00000000
Si      -0.06199974       2.65098575       2.61447672       0.00000000
Si       2.64981287      -2.69117318      -0.03999919       0.00000000
Si      -2.69848739      -2.67136454      -0.01228276       0.00000000
Si      -2.72847728       2.71223615      -0.04069940       0.00000000
Si       2.67284693       0.03254742      -2.76916360       0.00000000
Si      -2.70360245       0.03083697      -2.74500654       0.00000000
