10
Lattice="16.28999089631971 0.0 0.0 0.0 16.28999089631971 0.0 0.0 0.0 34.376317263855086" Properties=species:S:1:pos:R:3:initial_magmoms:R:1 pbc="T T T"
Si      -0.33946731      -2.23869302      -0.57848499       0.00000000
Si      -2.16889947       0.85359600       0.28862372       0.00000000
Si       0.95498496       0.62613873       2.05704560       0.00000000
Si       1.77217281       0.44975061      -1.52417801       0.00000000
Si       0.90903087      -1.40039591      -2.73219685       0.00000000
Si      -1.45139013       3.09796704       0.49230351       0.00000000
Si       0.02684592       2.86897851       2.38104257       0.00000000
Si       1.77860736      -3.28250735      -0.07256845       0.00000000
Si       3.26700837       0.27671823       2.06031135       0.00000000
Si      -3.54881722       0.15592788      -1.57436746       0.00000000
