10
Lattice="16.28999089631971 0.0 0.0 0.0 16.28999089631971 0.0 0.0 0.0 34.376317263855086" Properties=species:S:1:pos:R:3:initial_magmoms:R:1 pbc="T T T"
Si       2.13434838       1.05293673       0.02533536       0.00000000
Si      -0.95381208       0.33425451      -2.16278721       0.00000000
Si      -1.45440378       1.62070839       1.03923103       0.00000000
Si       0.33790347      -2.18884820       0.96686884       0.00000000
Si       2.21786721       1.57485204      -2.24900306       0.00000000
Si      -1.33055091       0.91688265       3.31023494       0.00000000
Si       0.04911435       2.46027870      -2.76512938       0.00000000
Si       1.81649790       3.11246514       1.02823060       0.00000000
Si       0.26006985      -1.14325989      -3.56317603       0.00000000
Si      -0.38612187       3.70028979       0.68972682       0.00000000
