10
Lattice="16.28999089631971 0.0 0.0 0.0 16.28999089631971 0.0 0.0 0.0 34.376317263855086" Properties=species:S:1:pos:R:3:initial_magmoms:R:1 pbc="T T T"
Si       1.71776421       1.03302058      -1.30513199       0.00000000
Si      -1.02429891      -1.77435634      -1.23483238       0.00000000
Si       1.38230424      -1.28315027       1.59640269       0.00000000
Si      -1.94440698       1.73924095       0.08625023       0.00000000
Si      -2.27384942      -0.27018431      -2.71617747       0.00000000
Si       2.24544618       0.56699626       2.80442153       0.00000000
Si       0.44501022       2.47401769      -2.71490555       0.00000000
Si       3.30814062       2.04034531       0.15043085       0.00000000
Si       0.43621362      -2.96018689      -2.71930572       0.00000000
Si      -3.71881871       0.95578969      -1.29406281       0.00000000
