10
Lattice="16.28999089631971 0.0 0.0 0.0 16.28999089631971 0.0 0.0 0.0 34.376317263855086" Properties=species:S:1:pos:R:3:initial_magmoms:R:1 pbc="T T T"
Si       1.91422161       0.51939036       1.33510816       0.00000000
Si      -0.23760594      -2.34398439       0.52698924       0.00000000
Si       0.82508850      -0.87063534      -2.12700144       0.00000000
Si      -2.11541940       1.45627713       0.56256875       0.00000000
Si       3.34748097      -0.93827142      -0.01488495       0.00000000
Si      -2.00977875      -2.79373500       2.05116724       0.00000000
Si      -1.29152007       3.19210695       2.07746514       0.00000000
Si      -0.76528791      -1.87796007      -3.58256428       0.00000000
Si       2.16700983      -0.36847980       3.55526947       0.00000000
Si       3.11345883       2.61242730       1.03276828       0.00000000
