10
Lattice="16.28999089631971 0.0 0.0 0.0 16.28999089631971 0.0 0.0 0.0 34.376317263855086" Properties=species:S:1:pos:R:3:initial_magmoms:R:1 pbc="T T T"
Si      -0.85362762      -2.05637534       0.73180345       0.00000000
Si      -1.39474884       1.80243963      -0.67542626       0.00000000
Si       1.37991775       0.69766812       1.86299118       0.00000000
Si       1.13113687       1.46606742      -2.66798185       0.00000000
Si       0.55441549       3.14413290      -0.75132921       0.00000000
Si      -2.03413134      -0.73636176      -2.60386998       0.00000000
Si      -1.47808848      -2.81897540      -1.43706837       0.00000000
Si      -2.74489662       2.06156466       1.22142561       0.00000000
Si      -3.43380072       0.62152866      -1.29100332       0.00000000
Si       0.99590707      -3.18729230       1.80176692       0.00000000
