10
Lattice="16.28999089631971 0.0 0.0 0.0 16.28999089631971 0.0 0.0 0.0 34.376317263855086" Properties=species:S:1:pos:R:3:initial_magmoms:R:1 pbc="T T T"
Si      -2.15946756       0.81116055      -0.44936747       0.00000000
Si      -0.02870298      -0.14744079       2.38585526       0.00000000
Si       0.71169381      -1.90325844      -1.33703323       0.00000000
Si       1.90687482       1.58495184      -0.50519464       0.00000000
Si       1.76941980       2.89419543       1.49475186       0.00000000
Si       0.58784094      -1.19943270      -3.60803715       0.00000000
Si      -2.82581001       0.25747974      -2.66200037       0.00000000
Si       2.62979244      -2.86695855      -0.10921362       0.00000000
Si      -0.95270436      -3.60515619      -1.15391049       0.00000000
Si      -2.48271003       3.11477832       0.20591426       0.00000000
