10
Lattice="16.28999089631971 0.0 0.0 0.0 16.28999089631971 0.0 0.0 0.0 34.376317263855086" Properties=species:S:1:pos:R:3:initial_magmoms:R:1 pbc="T T T"
Si       1.35467640       1.36189287       1.38149902       0.00000000
Si      -1.35817875      -1.35840681       1.38541792       0.00000000
Si      -1.45435491       1.35739683      -1.34425914       0.00000000
Si       1.41097464      -1.24527276      -1.58635449       0.00000000
Si      -2.70241326      -2.70604593       0.00026470       0.00000000
Si       2.71928970      -2.70259245      -0.01279487       0.00000000
Si       2.70528030       2.73300588       0.00543834       0.00000000
Si      -0.00158013      -2.71072116       2.74328322       0.00000000
Si       2.71494027       0.00188964       2.74366135       0.00000000
Si      -2.71523349       0.00382815       2.74421138       0.00000000
