10
Lattice="16.28999089631971 0.0 0.0 0.0 16.28999089631971 0.0 0.0 0.0 34.376317263855086" Properties=species:S:1:pos:R:3:initial_magmoms:R:1 pbc="T T T"
Si      -1.35635427      -1.35695700      -1.35734965       0.00000000
Si      -1.35738054       1.35700587       1.35738402       0.00000000
Si       1.35738054       1.35812988      -1.35686838       0.00000000
Si       1.35793440      -1.35783666       1.35759028       0.00000000
Si      -0.00083079       2.71305063       2.71490555       0.00000000
Si       2.71441899      -0.00125433       2.71356487       0.00000000
Si      -2.71455583       2.71454931      -0.00006875       0.00000000
Si      -0.00120546       2.71539639      -2.71421802       0.00000000
Si       2.71492398       2.71505430       0.00013751       0.00000000
Si      -2.71474642      -2.71539639      -0.00006875       0.00000000
