10
Lattice="16.28999089631971 0.0 0.0 0.0 16.28999089631971 0.0 0.0 0.0 34.376317263855086" Properties=species:S:1:pos:R:3:initial_magmoms:R:1 pbc="T T T"
Si      -2.31422256      -0.25024698       0.24262818       0.00000000
Si       0.94403808       1.89165996       1.03239014       0.00000000
Si       0.91370610      -1.72773369       1.31805749       0.00000000
Si       0.64136988      -0.32780367      -2.26134417       0.00000000
Si       2.33895078      -1.87564689      -1.99991213       0.00000000
Si       0.83398284       1.12133844       3.34626135       0.00000000
Si      -3.22279894       1.49547087      -1.05738173       0.00000000
Si       2.30099508      -0.63998523       2.87083661       0.00000000
Si       1.86013881      -3.25692486      -0.14988083       0.00000000
Si      -2.91843821       0.59689818       2.39888389       0.00000000
