10
Lattice="16.28999089631971 0.0 0.0 0.0 16.28999089631971 0.0 0.0 0.0 34.376317263855086" Properties=species:S:1:pos:R:3:initial_magmoms:R:1 pbc="T T T"
Si      -0.94403808      -1.89165996      -1.03239014       0.00000000
Si       2.34158976       0.15661206      -0.26294460       0.00000000
Si      -1.02727998       1.98515871      -0.82850409       0.00000000
Si      -0.11005524      -0.77032152       2.31387121       0.00000000
Si       1.35695700      -2.53164519       1.83844647       0.00000000
Si       2.58173694       2.51456905      -0.34400400       0.00000000
Si      -0.03033198      -3.61939365       0.28566736       0.00000000
Si       3.27956796      -1.29340971       1.39014467       0.00000000
Si      -0.97847514       3.57013988       0.88054986       0.00000000
Si      -3.28245129       1.59416613      -1.13545039       0.00000000
