10
Lattice="16.28999089631971 0.0 0.0 0.0 16.28999089631971 0.0 0.0 0.0 34.376317263855086" Properties=species:S:1:pos:R:3:initial_magmoms:R:1 pbc="T T T"
Si      -0.86113827       2.09828266      -0.79192766       0.00000000
Si      -0.14882544       0.02819556       2.45295787       0.00000000
Si       1.95014106      -1.24788600      -1.03221826       0.00000000
Si      -1.66615749      -0.09528705      -2.02837573       0.00000000
Si       1.56737493      -2.02469094       2.41830652       0.00000000
Si      -3.38120127      -1.34987769      -0.72671575       0.00000000
Si       0.90644076       2.67634960      -2.43370712       0.00000000
Si       0.81124200      -2.86662330      -2.33594082       0.00000000
Si      -0.40192317       3.57852238       1.21128459       0.00000000
Si       0.67820157       2.41414576       2.98881620       0.00000000
