10
Lattice="16.28999089631971 0.0 0.0 0.0 16.28999089631971 0.0 0.0 0.0 34.376317263855086" Properties=species:S:1:pos:R:3:initial_magmoms:R:1 pbc="T T T"
Si       1.83555720       1.04880168       1.06171315       0.00000000
Si      -1.54935819      -1.17871151       1.38674141       0.00000000
Si       0.77230890      -1.69715705      -1.54088491       0.00000000
Si      -0.99803943       1.79304779      -1.37821608       0.00000000
Si      -2.49870681      -2.41657232      -0.40210001       0.00000000
Si       0.74005470       2.73517994       2.28987653       0.00000000
Si      -0.01045818      -0.72708755      -3.63705078       0.00000000
Si       0.19504017       1.65440360      -3.34461128       0.00000000
Si       2.76195321       2.54470097      -0.48738770       0.00000000
Si      -0.60400062      -3.61626566      -1.15188228       0.00000000
