10
Lattice="16.28999089631971 0.0 0.0 0.0 16.28999089631971 0.0 0.0 0.0 34.376317263855086" Properties=species:S:1:pos:R:3:initial_magmoms:R:1 pbc="T T T"
Si      -0.51039828      -1.29781453       1.88299821       0.00000000
Si       1.09550250      -1.68637827      -1.22816337       0.00000000
Si      -2.06231400       0.85242312      -0.83761381       0.00000000
Si       1.58022774       1.75819599       0.58707907       0.00000000
Si       2.02189851      -0.19047897      -2.77726422       0.00000000
Si      -0.74005470      -2.73517994      -2.28987653       0.00000000
Si      -2.38016448       2.91195153       0.16528143       0.00000000
Si       0.99298953      -3.10944239       2.13497675       0.00000000
Si       2.42302347      -3.06246203       0.25046599       0.00000000
Si      -1.97879517       1.37433843      -3.11195224       0.00000000
