10
Lattice="16.28999089631971 0.0 0.0 0.0 16.28999089631971 0.0 0.0 0.0 34.376317263855086" Properties=species:S:1:pos:R:3:initial_magmoms:R:1 pbc="T T T"
Si       1.41794676      -1.89229527      -0.02966678       0.00000000
Si      -1.82579949      -1.50105834      -0.40694707       0.00000000
Si      -0.52794261       1.83809844      -1.53311585       0.00000000
Si       1.29424050       0.85647933       2.15446814       0.00000000
Si      -1.61516979      -1.90021221       2.06866480       0.00000000
Si       2.51261847       2.26598787       0.35290747       0.00000000
Si      -0.58494132      -0.06432921       3.47692034       0.00000000
Si       1.27291689      -2.55154180      -2.19905424       0.00000000
Si       1.44363609       3.10498803      -1.53215332       0.00000000
Si       3.61506051      -1.26416916       0.18851983       0.00000000
