10
Lattice="16.28999089631971 0.0 0.0 0.0 16.28999089631971 0.0 0.0 0.0 34.376317263855086" Properties=species:S:1:pos:R:3:initial_magmoms:R:1 pbc="T T T"
Si       1.32880788       1.36379880       1.35181506       0.00000000
Si      -1.35905841       1.35275418      -1.35920597       0.00000000
Si       1.35597960      -1.36262592      -1.35972161       0.00000000
Si      -1.38010509      -1.36194174       1.37075642       0.00000000
Si       2.65561209      -0.01404198       2.64178708       0.00000000
Si      -2.71415835       2.71029762       0.00127192       0.00000000
Si      -0.00073305       2.71125873      -2.71542119       0.00000000
Si       2.71520091       2.71246419       0.00075628       0.00000000
Si       2.71469592      -0.00350235      -2.71528369       0.00000000
Si       2.71349046      -2.71717200       0.00000000       0.00000000
