10
Lattice="16.28999089631971 0.0 0.0 0.0 16.28999089631971 0.0 0.0 0.0 34.376317263855086" Properties=species:S:1:pos:R:3:initial_magmoms:R:1 pbc="T T T"
Si      -0.48707100       0.75927690      -2.16803686       0.00000000
Si      -2.02971771      -0.59706108       1.15598097       0.00000000
Si       0.73083456       2.08262763       1.11949393       0.00000000
Si       1.90798254      -1.72729386      -0.37149514       0.00000000
Si      -2.73188187       0.37066266      -1.50684240       0.00000000
Si      -0.61175466      -1.92481011       2.52514233       0.00000000
Si       2.11366008       0.81368550       2.53227198       0.00000000
Si       0.78429834      -3.29406606       1.07829045       0.00000000
Si       3.50448399      -0.54556839       1.16657232       0.00000000
Si       1.10490183       2.72215674      -2.37443238       0.00000000
