10
Lattice="16.28999089631971 0.0 0.0 0.0 16.28999089631971 0.0 0.0 0.0 34.376317263855086" Properties=species:S:1:pos:R:3:initial_magmoms:R:1 pbc="T T T"
Si      -1.71621666      -0.93229299      -1.41826451       0.00000000
Si       0.90274293       1.75259223      -1.47013841       0.00000000
Si      -1.11430116       0.33262551       2.24302158       0.00000000
Si       1.84366962      -1.79178597      -0.28982689       0.00000000
Si      -0.29333403      -2.15555796      -2.92264175       0.00000000
Si       2.44964133       0.54923364      -2.89366250       0.00000000
Si      -2.96818461      -2.42683533       0.07466540       0.00000000
Si      -1.13806827      -3.51541458       1.05824114       0.00000000
Si       2.04164199       3.37132953      -0.16641584       0.00000000
Si       1.03347018      -3.53339874      -1.63266972       0.00000000
