10
Lattice="16.28999089631971 0.0 0.0 0.0 16.28999089631971 0.0 0.0 0.0 34.376317263855086" Properties=species:S:1:pos:R:3:initial_magmoms:R:1 pbc="T T T"
Si      -1.34586351      -1.35174420      -1.38467883       0.00000000
Si       1.37464794       1.35969372      -1.38450695       0.00000000
Si       1.18252368      -1.50996897       1.41647694       0.00000000
Si      -1.29487581       1.26136728       1.72404203       0.00000000
Si       2.32142274       0.10876833       2.72019951       0.00000000
Si      -2.69770545       2.70140721      -0.00096254       0.00000000
Si      -2.71088406      -2.71394658       0.00543146       0.00000000
Si       2.72140740       2.71344715      -0.02444158       0.00000000
Si       2.72942208      -2.71332756      -0.00704715       0.00000000
Si      -2.70299970      -0.00063531      -2.74701305       0.00000000
