10
Lattice="16.28999089631971 0.0 0.0 0.0 16.28999089631971 0.0 0.0 0.0 34.376317263855086" Properties=species:S:1:pos:R:3:initial_magmoms:R:1 pbc="T T T"
Si       1.09706634       0.47814408       2.02046918       0.00000000
Si      -1.27645182      -1.90946493       0.69711773       0.00000000
Si      -1.71620037       2.05288651       0.03465135       0.00000000
Si       1.85095125      -0.47372949      -1.92349353       0.00000000
Si      -1.56737493       2.02469094      -2.41830652       0.00000000
Si       0.38276613       0.77680494      -3.45052477       0.00000000
Si       1.68634080      -1.78443918       2.59613531       0.00000000
Si       2.62705572      -2.55321315       0.50949168       0.00000000
Si      -2.77317702      -2.26189908      -1.04108735       0.00000000
Si       2.68996770       2.19370167       1.47581050       0.00000000
