10
Lattice="16.28999089631971 0.0 0.0 0.0 16.28999089631971 0.0 0.0 0.0 34.376317263855086" Properties=species:S:1:pos:R:3:initial_magmoms:R:1 pbc="T T T"
Si      -1.35647541      -1.35780408       1.35673087       0.00000000
Si      -1.35766458       1.35798327      -1.35590584       0.00000000
Si       1.35829123       1.35698958       1.35690275       0.00000000
Si       1.35658078      -1.35671265      -1.36171544       0.00000000
Si      -0.00350946       2.70241326      -2.71818161       0.00000000
Si      -2.71273194       2.71376739      -0.00096254       0.00000000
Si       0.00153987       2.71407690       2.71425240       0.00000000
Si      -2.71440981      -0.00035838       2.71401176       0.00000000
Si      -2.71359531      -2.71523349       0.00010313       0.00000000
Si      -2.70206199       0.01272249      -2.72673788       0.00000000
