10
Lattice="16.28999089631971 0.0 0.0 0.0 16.28999089631971 0.0 0.0 0.0 34.376317263855086" Properties=species:S:1:pos:R:3:initial_magmoms:R:1 pbc="T T T"
Si       1.35021035       1.33103199       1.37247523       0.00000000
Si       1.35269946      -1.36037153      -1.35875908       0.00000000
Si      -1.36112724       1.35337046      -1.35824343       0.00000000
Si      -1.37614662      -1.35652709       1.37391904       0.00000000
Si      -0.09475893       2.55700598       2.79458990       0.00000000
Si       2.71126592      -2.71524341       0.00299074       0.00000000
Si       2.71266686       2.71397642       0.00316262       0.00000000
Si       2.71224332      -0.00249547      -2.71573058       0.00000000
Si      -0.00271438       2.71293386      -2.71583371       0.00000000
Si      -0.00235483      -2.71703531      -2.71552432       0.00000000
