10
Lattice="16.28999089631971 0.0 0.0 0.0 16.28999089631971 0.0 0.0 0.0 34.376317263855086" Properties=species:S:1:pos:R:3:initial_magmoms:R:1 pbc="T T T"
Si      -1.35601218       1.35457866      -1.35800280       0.00000000
Si       1.35909099      -1.36182771      -1.35783091       0.00000000
Si      -1.36313091      -1.36300222       1.36346863       0.00000000
Si       1.36878354       1.35526284       1.37254399       0.00000000
Si      -2.70989037      -2.71675565       0.00340326       0.00000000
Si      -2.71248048      -0.00259011      -2.71514618       0.00000000
Si       2.62545930      -0.15819219       2.79500241       0.00000000
Si      -2.71340901       2.71445157       0.00006875       0.00000000
Si       0.00216657       2.71288773      -2.71566183       0.00000000
Si       0.00203625      -2.71697486      -2.71524931       0.00000000
