10
Lattice="16.28999089631971 0.0 0.0 0.0 16.28999089631971 0.0 0.0 0.0 34.376317263855086" Properties=species:S:1:pos:R:3:initial_magmoms:R:1 pbc="T T T"
Si       1.35806472       1.35576783       1.35693713       0.00000000
Si      -1.35723556       1.35731538      -1.35738402       0.00000000
Si       1.35786924      -1.35770634      -1.35717776       0.00000000
Si      -1.35778942      -1.35812988       1.35700588       0.00000000
Si      -2.71172204       0.00060273       2.71181168       0.00000000
Si      -2.71398692       2.71440270      -0.00003438       0.00000000
Si      -2.71459932      -2.71518462      -0.00003438       0.00000000
Si      -2.71552678       0.00032580      -2.71428678       0.00000000
Si       2.71544526       2.71487511       0.00027501       0.00000000
Si       2.71480995       0.00120546      -2.71559308       0.00000000
