10
Lattice="16.28999089631971 0.0 0.0 0.0 16.28999089631971 0.0 0.0 0.0 34.376317263855086" Properties=species:S:1:pos:R:3:initial_magmoms:R:1 pbc="T T T"
Si      -1.49626908       1.37508451       1.09980213       0.00000000
Si       0.63182394      -1.75504617       1.37570661       0.00000000
Si      -0.92558151      -0.84695131      -2.00152781       0.00000000
Si       1.99375495       1.29708799      -0.14334932       0.00000000
Si       0.51981390       3.17654674      -1.08907672       0.00000000
Si       2.46372145      -2.45053143      -0.02499160       0.00000000
Si       3.34810718      -0.46017621       0.92932988       0.00000000
Si       0.94543902      -1.19335068      -3.46087205       0.00000000
Si      -3.68611749       0.72322387       0.51241367       0.00000000
Si      -2.51848287      -2.56250889      -1.45686914       0.00000000
