10
Lattice="16.28999089631971 0.0 0.0 0.0 16.28999089631971 0.0 0.0 0.0 34.376317263855086" Properties=species:S:1:pos:R:3:initial_magmoms:R:1 pbc="T T T"
Si       1.34439741       1.34526078       1.37083204       0.00000000
Si      -1.33253829       1.31409801      -1.44663530       0.00000000
Si       1.38453597      -1.31773068      -1.39948816       0.00000000
Si      -1.36914192      -1.37371941       1.36636312       0.00000000
Si      -0.42138972      -2.33088723      -2.51958161       0.00000000
Si      -2.17502451      -0.51559479      -2.80051092       0.00000000
Si       2.69855253       2.68969077       0.00855627       0.00000000
Si      -2.72859129       2.68335396       0.00021657       0.00000000
Si       2.69286133      -2.72666907       0.00324169       0.00000000
Si      -0.01066995       2.70104490       2.72577535       0.00000000
