10
Lattice="16.28999089631971 0.0 0.0 0.0 16.28999089631971 0.0 0.0 0.0 34.376317263855086" Properties=species:S:1:pos:R:3:initial_magmoms:R:1 pbc="T T T"
Si      -1.35684297       1.35695700      -1.35673087       0.00000000
Si       1.35707103       1.35668007       1.35879345       0.00000000
Si       1.35793440      -1.35744570      -1.35728089       0.00000000
Si      -1.35817875      -1.35830907       1.35765903       0.00000000
Si       0.00123804       2.71138905       2.71490555       0.00000000
Si       2.71440981       0.00035838      -2.71401176       0.00000000
Si      -0.00216657      -2.71288773       2.71566183       0.00000000
Si       0.00081450      -2.71487511      -2.71390864       0.00000000
Si       0.00167787       2.71412577      -2.71497430       0.00000000
Si      -2.71437012       2.71523349       0.00044689       0.00000000
