10
Lattice="16.28999089631971 0.0 0.0 0.0 16.28999089631971 0.0 0.0 0.0 34.376317263855086" Properties=species:S:1:pos:R:3:initial_magmoms:R:1 pbc="T T T"
Si      -0.93618630      -1.61049456      -1.44174355       0.00000000
Si       1.63861110       1.02472245      -1.45539096       0.00000000
Si       1.85711801      -1.55411487      -0.20560487       0.00000000
Si      -1.33923348      -1.71370800       1.83837772       0.00000000
Si      -2.32797132      -0.28937556      -2.86031745       0.00000000
Si       0.37460484       2.42740548      -2.85718921       0.00000000
Si       3.38594885       1.91148489      -0.13341456       0.00000000
Si      -2.27063052      -3.16227996      -0.18714478       0.00000000
Si       2.84268712      -2.05615638       1.87100087       0.00000000
Si      -3.04214121      -0.22299381       2.56045267       0.00000000
