10
Lattice="16.28999089631971 0.0 0.0 0.0 16.28999089631971 0.0 0.0 0.0 34.376317263855086" Properties=species:S:1:pos:R:3:initial_magmoms:R:1 pbc="T T T"
Si       2.36393964       0.40576761      -0.54593060       0.00000000
Si       1.55168766       1.15020432       1.63208533       0.00000000
Si      -0.42997455       2.08741689      -1.49382370       0.00000000
Si      -1.37189493      -2.08596708       1.36639062       0.00000000
Si      -0.58942107       1.40602248       2.66835999       0.00000000
Si      -1.94968494      -0.60678621      -2.44931397       0.00000000
Si      -2.17557837      -0.36134478       2.71669312       0.00000000
Si      -2.51069625       2.67380802      -0.60113900       0.00000000
Si       0.63583128      -3.52251702      -1.16601096       0.00000000
Si       0.60071004      -2.73953817       2.52772640       0.00000000
