10
Lattice="16.28999089631971 0.0 0.0 0.0 16.28999089631971 0.0 0.0 0.0 34.376317263855086" Properties=species:S:1:pos:R:3:initial_magmoms:R:1 pbc="T T T"
Si      -1.34877942      -1.35156501      -1.36152637       0.00000000
Si       1.35635427      -1.35658233       1.35765903       0.00000000
Si      -1.35767376       1.35697329       1.35717776       0.00000000
Si       1.34506530       1.36345671      -1.38938152       0.00000000
Si       2.71561860      -2.71215468      -0.00257823       0.00000000
Si       2.71421604       2.71379997      -0.00529396       0.00000000
Si      -2.71331127       2.71538010      -0.00460643       0.00000000
Si      -0.00029322      -2.71396287       2.71497430       0.00000000
Si      -2.71507059      -2.71386513      -0.00539708       0.00000000
Si       2.71494094       0.00079821       2.71476804       0.00000000
