10
Lattice="16.28999089631971 0.0 0.0 0.0 16.28999089631971 0.0 0.0 0.0 34.376317263855086" Properties=species:S:1:pos:R:3:initial_magmoms:R:1 pbc="T T T"
Si      -1.35163017      -1.35443205       1.37909955       0.00000000
Si       1.36194174       1.36212323       1.38205592       0.00000000
Si      -1.49118660       1.27070864      -1.39541800       0.00000000
Si       1.34350146      -1.30958568      -1.53813136       0.00000000
Si       2.70674640      -2.70635544      -0.00567553       0.00000000
Si       2.70893956       2.72009510       0.01807508       0.00000000
Si      -2.71722087       2.71367684       0.01637689       0.00000000
Si      -2.71999017      -2.71829601       0.00160537       0.00000000
Si      -2.71267596       0.00363724       2.74057436       0.00000000
Si       0.00400734      -2.71283886       2.74088375       0.00000000
