10
Lattice="16.28999089631971 0.0 0.0 0.0 16.28999089631971 0.0 0.0 0.0 34.376317263855086" Properties=species:S:1:pos:R:3:initial_magmoms:R:1 pbc="T T T"
Si      -1.34506530      -1.36345671       1.38938152       0.00000000
Si       1.36915074       1.35034326       1.38408756       0.00000000
Si       1.36464003      -1.27874871      -1.49812074       0.00000000
Si      -1.36324494       1.39676976      -1.53245583       0.00000000
Si      -2.69384472      -2.71502172       0.02785515       0.00000000
Si       2.71494746      -2.69623935       0.02207648       0.00000000
Si      -2.70674640       2.70635544       0.00567553       0.00000000
Si      -2.70273906      -0.00648342       2.74655928       0.00000000
Si       2.73579866       2.71882001       0.00990038       0.00000000
Si       0.01206272       2.71041641       2.74690304       0.00000000
