10
Lattice="16.28999089631971 0.0 0.0 0.0 16.28999089631971 0.0 0.0 0.0 34.376317263855086" Properties=species:S:1:pos:R:3:initial_magmoms:R:1 pbc="T T T"
Si      -1.35721764      -1.35720135      -1.35638711       0.00000000
Si       1.35873983       1.35785295      -1.35600897       0.00000000
Si       1.36142046      -1.35651717       1.36126855       0.00000000
Si      -1.35943308       1.36120869       1.36016851       0.00000000
Si      -2.71391400      -0.00009774      -2.71335861       0.00000000
Si       0.00070047      -2.71448415      -2.71346174       0.00000000
Si      -2.71458189       2.71350675       0.00003438       0.00000000
Si       2.71379412       2.71451673       0.00075628       0.00000000
Si       0.00087966       2.71534752      -2.71394301       0.00000000
Si       2.71329565      -2.71604799       0.00082503       0.00000000
