10
Lattice="16.28999089631971 0.0 0.0 0.0 16.28999089631971 0.0 0.0 0.0 34.376317263855086" Properties=species:S:1:pos:R:3:initial_magmoms:R:1 pbc="T T T"
Si      -1.34438112      -1.35715248      -1.37326589       0.00000000
Si       1.37614662       1.35652709      -1.37391904       0.00000000
Si       1.18071549      -1.55069397       1.35298385       0.00000000
Si      -1.47018879       1.33552084       1.41568629       0.00000000
Si       2.42215914      -0.37561482       2.88819666       0.00000000
Si      -0.10946880       2.49455516       2.86509576       0.00000000
Si       2.72635697       2.68755908      -0.00144381       0.00000000
Si      -2.70720252       2.70872305      -0.01086292       0.00000000
Si      -2.69918784      -2.71805166       0.00653150       0.00000000
Si      -2.69952993      -0.00485442      -2.73340002       0.00000000
