10
Lattice="16.28999089631971 0.0 0.0 0.0 16.28999089631971 0.0 0.0 0.0 34.376317263855086" Properties=species:S:1:pos:R:3:initial_magmoms:R:1 pbc="T T T"
Si      -1.46818512       1.25053443      -1.52703124       0.00000000
Si       2.08557612       1.55843172      -0.22891202       0.00000000
Si       1.51400889      -1.77321537      -1.31317605       0.00000000
Si      -1.85095125       0.47372949       1.92349353       0.00000000
Si       0.77610447      -2.07948366       2.43298521       0.00000000
Si       0.16881327       2.48201104      -2.84512311       0.00000000
Si      -2.60708418      -0.36820287      -2.83075380       0.00000000
Si       2.71003698       2.32103178       1.93995980       0.00000000
Si       2.81971755      -0.40420377      -2.90782555       0.00000000
Si      -0.75388491       0.95187357       3.94396271       0.00000000
