10
Lattice="16.28999089631971 0.0 0.0 0.0 16.28999089631971 0.0 0.0 0.0 34.376317263855086" Properties=species:S:1:pos:R:3:initial_magmoms:R:1 pbc="T T T"
Si      -0.63182394       1.75504617      -1.37570661       0.00000000
Si      -1.39274613      -1.60722027       0.99034788       0.00000000
Si       1.68483627       0.68059620       1.57715194       0.00000000
Si       1.83189751      -0.69548526      -1.40069821       0.00000000
Si       2.71628324       1.29486996      -0.44637673       0.00000000
Si       2.13625824      -1.59405795       2.05556742       0.00000000
Si       1.36193101       3.05213417      -1.51905593       0.00000000
Si       2.74047389      -2.44120311      -0.10068829       0.00000000
Si       0.03538188      -2.47464648       2.75326954       0.00000000
Si      -2.12809302       3.13013069      -0.27590448       0.00000000
