10
Lattice="16.28999089631971 0.0 0.0 0.0 16.28999089631971 0.0 0.0 0.0 34.376317263855086" Properties=species:S:1:pos:R:3:initial_magmoms:R:1 pbc="T T T"
Si      -1.01870071      -1.53044550       1.46965714       0.00000000
Si      -0.10358485      -1.45554408      -1.85505025       0.00000000
Si      -2.08025485       1.14929208      -0.39402157       0.00000000
Si       1.87041943       1.55044962      -0.07683111       0.00000000
Si      -1.26800287       0.40485537      -2.57203750       0.00000000
Si       0.76864202       3.32001603       0.97030647       0.00000000
Si      -1.20715972       3.34441845      -0.23647482       0.00000000
Si      -1.53046735      -3.27147183      -1.30994468       0.00000000
Si       2.38135528       1.96017570      -2.35625723       0.00000000
Si       0.82378856       0.06035445       3.84929028       0.00000000
