10
Lattice="16.28999089631971 0.0 0.0 0.0 16.28999089631971 0.0 0.0 0.0 34.376317263855086" Properties=species:S:1:pos:R:3:initial_magmoms:R:1 pbc="T T T"
Si      -0.93850830       1.30000716       1.73256736       0.00000000
Si       2.17578851       0.92030355      -0.22495875       0.00000000
Si      -1.35647712       0.13080870      -1.95525727       0.00000000
Si      -0.26277888      -2.26180134       0.85270503       0.00000000
Si       0.95722321       0.35249931       2.82662864       0.00000000
Si      -2.94077736       0.06861348       1.80400139       0.00000000
Si       1.67811272      -2.02857741       2.34487866       0.00000000
Si      -3.46925754      -0.19860768      -0.76019830       0.00000000
Si       2.84213096       1.47398436       1.98767415       0.00000000
Si       3.28416011      -0.30164193      -1.90833357       0.00000000
