10
Lattice="16.28999089631971 0.0 0.0 0.0 16.28999089631971 0.0 0.0 0.0 34.376317263855086" Properties=species:S:1:pos:R:3:initial_magmoms:R:1 pbc="T T T"
Si       0.89630675       0.35111466       2.19248836       0.00000000
Si       1.81128347      -1.58425137      -0.39305903       0.00000000
Si      -2.32527600      -0.80024625      -0.17545682       0.00000000
Si       0.11930633       2.37192174      -0.71018074       0.00000000
Si       2.71409156       1.52217018       1.17580821       0.00000000
Si      -1.84248927      -1.59079995      -2.37963314       0.00000000
Si      -3.05078373       1.51581708       0.25362861       0.00000000
Si       3.38799257       0.13273092      -0.69378322       0.00000000
Si      -1.49871502       3.32379531       0.70935570       0.00000000
Si      -2.32216461      -2.61676044       1.46876335       0.00000000
