10
Lattice="16.28999089631971 0.0 0.0 0.0 16.28999089631971 0.0 0.0 0.0 34.376317263855086" Properties=species:S:1:pos:R:3:initial_magmoms:R:1 pbc="T T T"
Si      -1.35926433       1.35557235       1.36023726       0.00000000
Si       1.35752389      -1.35855342       1.36006538       0.00000000
Si       1.34439415       1.37937204      -1.36472681       0.00000000
Si      -1.36266894      -1.37156913      -1.35773810       0.00000000
Si       2.61840247      -0.00498474      -2.72840514       0.00000000
Si      -2.67357411       0.00133578      -2.72464780       0.00000000
Si       2.71267270       2.71379997       0.00319700       0.00000000
Si      -2.71561860       2.71215468       0.00257823       0.00000000
Si      -0.00067766       2.71295289       2.71734627       0.00000000
Si       2.71387816      -0.00159642       2.71741502       0.00000000
