10
Lattice="16.28999089631971 0.0 0.0 0.0 16.28999089631971 0.0 0.0 0.0 34.376317263855086" Properties=species:S:1:pos:R:3:initial_magmoms:R:1 pbc="T T T"
Si       1.35430297       1.35653346       1.35714339       0.00000000
Si       1.35675136      -1.35708732      -1.35734965       0.00000000
Si      -1.35829221       1.35809730      -1.35714339       0.00000000
Si      -1.35887865      -1.35775521       1.35855282       0.00000000
Si       0.00226488      -2.71379997       2.71184606       0.00000000
Si      -0.00153987      -2.71407690      -2.71425240       0.00000000
Si       2.71398692      -2.71440270       0.00003438       0.00000000
Si      -2.71471164      -0.00304623       2.71466492       0.00000000
Si       2.71411724       2.71531494       0.00010313       0.00000000
Si      -2.71427181      -0.00030951      -2.71521494       0.00000000
