10
Lattice="16.28999089631971 0.0 0.0 0.0 16.28999089631971 0.0 0.0 0.0 34.376317263855086" Properties=species:S:1:pos:R:3:initial_magmoms:R:1 pbc="T T T"
Si      -1.74733775      -0.88676244      -1.32197640       0.00000000
Si       1.13336046       1.74094488      -1.25428939       0.00000000
Si      -1.16613105       1.56647898       1.46470694       0.00000000
Si       1.76937093      -1.93207545       0.21794597       0.00000000
Si      -0.31143874      -2.20563342      -2.72494344       0.00000000
Si       2.44141488       0.50736834      -2.72133392       0.00000000
Si      -0.60151314       0.40057110       3.67761485       0.00000000
Si      -1.52883084      -3.46559976      -0.07219031       0.00000000
Si       2.03960574       3.28654008       0.24035934       0.00000000
Si      -3.38594885      -1.91148489       0.13341456       0.00000000
