10
Lattice="16.28999089631971 0.0 0.0 0.0 16.28999089631971 0.0 0.0 0.0 34.376317263855086" Properties=species:S:1:pos:R:3:initial_magmoms:R:1 pbc="T T T"
Si       1.42039026       1.28392893       1.38993841       0.00000000
Si      -2.09884595       1.01511135      -0.49512237       0.00000000
Si      -0.47586348      -2.32406172       0.48350317       0.00000000
Si       1.29586950       0.09213624      -2.08279347       0.00000000
Si       3.11797116      -0.26391429       1.65137045       0.00000000
Si      -2.61226929      -2.35688607      -0.65191284       0.00000000
Si      -2.00756331       0.91776231      -2.85698295       0.00000000
Si       2.26152441      -2.10769794      -1.89623310       0.00000000
Si       2.21899122       2.98232433      -0.07198405       0.00000000
Si      -3.69207053      -0.48666375       0.32612830       0.00000000
