10
Lattice="16.28999089631971 0.0 0.0 0.0 16.28999089631971 0.0 0.0 0.0 34.376317263855086" Properties=species:S:1:pos:R:3:initial_magmoms:R:1 pbc="T T T"
Si       1.35638685       1.35765747       1.35786529       0.00000000
Si      -1.35858926      -1.35699935       1.35776216       0.00000000
Si       1.35741312      -1.35830092      -1.35934347       0.00000000
Si      -1.36042840       1.35897696      -1.36095916       0.00000000
Si       2.71344159      -2.71521415       0.00123755       0.00000000
Si       2.71419093      -0.00009774       2.71504305       0.00000000
Si       2.71332756       2.71656927      -0.00055002       0.00000000
Si      -0.00112401      -2.71525014       2.71511181       0.00000000
Si      -0.00148239       2.71536381       2.71504305       0.00000000
Si      -2.71634028      -2.71429109       0.00041252       0.00000000
