10
Lattice="16.28999089631971 0.0 0.0 0.0 16.28999089631971 0.0 0.0 0.0 34.376317263855086" Properties=species:S:1:pos:R:3:initial_magmoms:R:1 pbc="T T T"
Si       1.18444590      -1.37389860       1.49052357       0.00000000
Si      -1.34900748      -1.35627282      -1.36635625       0.00000000
Si       1.37026593       1.35882077      -1.36587498       0.00000000
Si      -1.46051253       1.18583055       1.48447334       0.00000000
Si      -2.71006304       2.69000258       0.00312825       0.00000000
Si       2.72725551       2.69912661       0.01718817       0.00000000
Si       2.71407690      -2.71622718       0.02358217       0.00000000
Si      -2.70090318      -2.73385296       0.00787218       0.00000000
Si      -2.70757393      -0.00140094      -2.72810606       0.00000000
Si       0.00783549       2.71305130      -2.72824357       0.00000000
