10
Lattice="16.28999089631971 0.0 0.0 0.0 16.28999089631971 0.0 0.0 0.0 34.376317263855086" Properties=species:S:1:pos:R:3:initial_magmoms:R:1 pbc="T T T"
Si       1.02429891       1.77435634       1.23483238       0.00000000
Si       1.46051253      -1.18583055      -1.48447334       0.00000000
Si      -1.24955051       1.50417203      -1.48134509       0.00000000
Si      -1.55374835      -1.55900187       1.40829538       0.00000000
Si       2.64495843      -2.55972915       0.00605024       0.00000000
Si       2.40660315       0.49120607       2.83123507       0.00000000
Si       0.11150505      -2.54210337      -2.85082958       0.00000000
Si      -2.69451980       2.73014603      -0.05923043       0.00000000
Si      -2.59976087       0.17314004      -2.85382033       0.00000000
Si      -0.92010807       3.51359729       1.32108261       0.00000000
