10
Lattice="16.28999089631971 0.0 0.0 0.0 16.28999089631971 0.0 0.0 0.0 34.376317263855086" Properties=species:S:1:pos:R:3:initial_magmoms:R:1 pbc="T T T"
Si      -1.24144365      -1.17507915      -1.53521281       0.00000000
Si       0.60337346      -1.89646551       1.29756920       0.00000000
Si      -1.97558508       0.78755634       1.14370071       0.00000000
Si       1.55374835       1.55900187      -1.40829538       0.00000000
Si       2.63978636      -2.28514491       0.06538379       0.00000000
Si      -2.54715231      -2.54409075       0.05943669       0.00000000
Si       0.31335770      -2.36068164      -2.88489653       0.00000000
Si      -2.42215914       0.37561482      -2.88819666       0.00000000
Si      -2.53162794       2.87016998      -0.02310090       0.00000000
Si      -1.35112422       1.55015640       3.31257254       0.00000000
