10
Lattice="16.28999089631971 0.0 0.0 0.0 16.28999089631971 0.0 0.0 0.0 34.376317263855086" Properties=species:S:1:pos:R:3:initial_magmoms:R:1 pbc="T T T"
Si      -0.45142196       2.27465415      -0.47841547       0.00000000
Si       1.81252640      -0.76678659       1.32077322       0.00000000
Si      -2.10087636      -0.88058853       0.69770213       0.00000000
Si       0.60421565      -0.84714516      -2.15625571       0.00000000
Si      -2.13625824       1.59405795      -2.05556742       0.00000000
Si      -0.30436073       0.89857269      -3.45626562       0.00000000
Si      -1.39272740      -3.10871844       1.34823992       0.00000000
Si      -3.52900437      -0.01316232      -1.06521954       0.00000000
Si       2.23302017      -2.99646405       0.54984950       0.00000000
Si       1.12815092      -0.74083662       3.54048765       0.00000000
