10
Lattice="16.28999089631971 0.0 0.0 0.0 16.28999089631971 0.0 0.0 0.0 34.45770212530097" Properties=species:S:1:pos:R:3:initial_magmoms:R:1 pbc="T T T"
Si       1.31401982      -1.28301995      -1.51055759       0.00000000
Si       0.90902435       1.90609290       1.25708659       0.00000000
Si      -1.42040233       1.41177285      -1.47124133       0.00000000
Si      -0.83880046      -1.95817203       1.29195781       0.00000000
Si       2.52900132      -2.70000953      -0.11109169       0.00000000
Si      -2.69071282      -2.71535471      -0.02363800       0.00000000
Si       3.60607983      -0.95742846       0.89273065       0.00000000
Si      -0.83968012       3.59513784       1.25009167       0.00000000
Si      -0.05164595      -2.64020894      -2.86826073       0.00000000
Si       2.66212320       0.07020990      -2.86760603       0.00000000
