10
Lattice="16.28999089631971 0.0 0.0 0.0 16.28999089631971 0.0 0.0 0.0 34.45770212530097" Properties=species:S:1:pos:R:3:initial_magmoms:R:1 pbc="T T T"
Si      -1.23416950      -0.95089617       1.84132901       0.00000000
Si       0.26036307       2.21574951      -1.17700685       0.00000000
Si      -1.04716681      -2.01305304      -1.15361005       0.00000000
Si       1.45072224       1.61111358       1.87391568       0.00000000
Si      -2.97314396      -1.95753672       0.48881724       0.00000000
Si       2.15203932       3.31915007       0.37662289       0.00000000
Si      -0.99259857      -1.35935163      -3.71281948       0.00000000
Si       0.08804745      -2.47598226       3.29123068       0.00000000
Si      -2.61997676       0.23815980       3.31921035       0.00000000
Si      -1.65730713       3.72373503      -1.21384215       0.00000000
