10
Lattice="16.28999089631971 0.0 0.0 0.0 16.28999089631971 0.0 0.0 0.0 34.45770212530097" Properties=species:S:1:pos:R:3:initial_magmoms:R:1 pbc="T T T"
Si      -1.35830907      -1.35767865       1.35601471       0.00000000
Si       1.35778779      -1.35751412      -1.35753085       0.00000000
Si      -1.35778779       1.35782037      -1.35756531       0.00000000
Si       1.35715248       1.35757602       1.35880578       0.00000000
Si       0.00026064       2.71500543      -2.71399351       0.00000000
Si       2.71394658       0.00092853      -2.71550965       0.00000000
Si      -2.71507059      -2.71459899      -0.00017229       0.00000000
Si      -2.71480995       2.71520091      -0.00017229       0.00000000
Si       2.71559187       2.71469592      -0.00017229       0.00000000
Si       2.71557558      -2.71515494      -0.00006892       0.00000000
