10
Lattice="16.28999089631971 0.0 0.0 0.0 16.28999089631971 0.0 0.0 0.0 34.45770212530097" Properties=species:S:1:pos:R:3:initial_magmoms:R:1 pbc="T T T"
Si      -0.73502109       1.81403811      -1.30884209       0.00000000
Si       2.21920299      -0.50005413      -0.63877724       0.00000000
Si      -1.37078721      -1.94520845      -0.35074515       0.00000000
Si       0.59919507       1.06279218       2.13152019       0.00000000
Si       2.93373126       1.67710437      -0.26628927       0.00000000
Si       1.19983995       3.12367266      -0.86388953       0.00000000
Si      -0.09749565      -3.25922894       1.17211385       0.00000000
Si      -2.66826942       2.55492360      -0.07811565       0.00000000
Si      -0.48633795      -0.19888461       3.74813864       0.00000000
Si      -3.64408114      -1.14091902      -0.08531732       0.00000000
