10
Lattice="16.28999089631971 0.0 0.0 0.0 16.28999089631971 0.0 0.0 0.0 34.45770212530097" Properties=species:S:1:pos:R:3:initial_magmoms:R:1 pbc="T T T"
Si      -0.18293670      -2.09334549       1.04024415       0.00000000
Si      -2.18217582       0.07476784      -1.01798446       0.00000000
Si       1.85784192       0.61409879      -1.45294428       0.00000000
Si       0.13172094       1.79093074       1.78728755       0.00000000
Si      -2.54607813       2.30527120      -0.63743339       0.00000000
Si      -2.21749254       2.64552043       1.69683603       0.00000000
Si       2.03699934       3.11491678       1.06750021       0.00000000
Si      -2.15723583      -0.75507312      -3.21345818       0.00000000
Si       2.37231270       2.92543150      -1.23289727       0.00000000
Si      -1.63836675      -3.61426134      -0.00137831       0.00000000
