10
Lattice="16.28999089631971 0.0 0.0 0.0 16.28999089631971 0.0 0.0 0.0 34.45770212530097" Properties=species:S:1:pos:R:3:initial_magmoms:R:1 pbc="T T T"
Si       1.00740618       2.08705851       0.12859622       0.00000000
Si      -0.47744361      -1.44158355       1.83876739       0.00000000
Si      -2.12491647       0.76128057      -0.85072668       0.00000000
Si       1.20378213      -1.11746142      -1.83508041       0.00000000
Si       0.77364468       2.43559935      -2.20057346       0.00000000
Si      -3.22988509       1.06593615       1.22531657       0.00000000
Si      -2.80779816      -1.11246039       2.03331568       0.00000000
Si       3.19261194       1.60796961       0.82226461       0.00000000
Si      -0.52269723      -2.66680332      -2.51372523       0.00000000
Si       2.97315306      -2.40515334      -0.75986167       0.00000000
