10
Lattice="16.28999089631971 0.0 0.0 0.0 16.28999089631971 0.0 0.0 0.0 34.45770212530097" Properties=species:S:1:pos:R:3:initial_magmoms:R:1 pbc="T T T"
Si      -1.00740618      -2.08705851      -0.12859622       0.00000000
Si       2.18520576      -0.47908890       0.69366839       0.00000000
Si      -0.23376150       0.34854084      -2.32916968       0.00000000
Si      -1.09975419       1.59552405       1.36128674       0.00000000
Si      -3.13232265      -1.32577794      -0.97932290       0.00000000
Si       2.07515052       0.35411202       2.90134014       0.00000000
Si       0.19637595      -3.20451993      -1.96367663       0.00000000
Si       0.31003128       1.89561843       3.25556552       0.00000000
Si      -0.86148036       3.67851006       0.22976409       0.00000000
Si       1.20464550       2.07945108      -2.93872677       0.00000000
