10
Lattice="16.28999089631971 0.0 0.0 0.0 16.28999089631971 0.0 0.0 0.0 34.45770212530097" Properties=species:S:1:pos:R:3:initial_magmoms:R:1 pbc="T T T"
Si      -0.83940741      -1.69202601       1.37024575       0.00000000
Si       0.11005524      -0.83320092      -2.20767175       0.00000000
Si      -1.76511924       1.54150641       0.35422538       0.00000000
Si       2.15492265       0.97474473       0.21577425       0.00000000
Si      -2.07515052      -0.35411202      -2.90134014       0.00000000
Si      -1.56182004      -0.46595916       3.25046577       0.00000000
Si      -3.17490471       1.24141203      -1.54005340       0.00000000
Si       1.86877251       0.30634974      -3.27182956       0.00000000
Si       0.89448390      -3.13859430       1.96784601       0.00000000
Si       2.66846490       2.02241979      -1.92229290       0.00000000
