10
Lattice="16.28999089631971 0.0 0.0 0.0 16.28999089631971 0.0 0.0 0.0 34.45770212530097" Properties=species:S:1:pos:R:3:initial_magmoms:R:1 pbc="T T T"
Si      -0.99414612      -1.76998995       1.16274169       0.00000000
Si       1.44159984      -1.51537725      -1.08348622       0.00000000
Si       1.83327660       0.96905952       1.29394291       0.00000000
Si      -1.69904700       1.74042360      -0.30853206       0.00000000
Si       0.41966298       2.22430176       2.64976122       0.00000000
Si       0.10256184       0.79680906      -3.40955470       0.00000000
Si      -2.29236138      -0.48223287       2.64444439       0.00000000
Si       2.37757437       0.08728182      -2.72839446       0.00000000
Si      -0.85677255       3.47374476       1.05611228       0.00000000
Si      -3.50847504       0.98917767       1.17070487       0.00000000
