10
Lattice="16.28999089631971 0.0 0.0 0.0 16.28999089631971 0.0 0.0 0.0 34.45770212530097" Properties=species:S:1:pos:R:3:initial_magmoms:R:1 pbc="T T T"
Si      -1.35539316      -1.35575154      -1.35808217       0.00000000
Si      -1.35327546       1.36029645       1.35766868       0.00000000
Si       1.36011726      -1.35264015       1.36008072       0.00000000
Si       1.35946566       1.35928647      -1.35746193       0.00000000
Si       0.02029734       2.69555517       2.70779112       0.00000000
Si      -2.71441899      -2.71238274      -0.00044795       0.00000000
Si      -2.71225242       0.00143352      -2.71468266       0.00000000
Si       0.00234576      -2.71308321      -2.71519953       0.00000000
Si      -2.71257822       2.71642266      -0.00065470       0.00000000
Si       0.00293220       2.71619460      -2.71457929       0.00000000
