10
Lattice="16.28999089631971 0.0 0.0 0.0 16.28999089631971 0.0 0.0 0.0 34.45770212530097" Properties=species:S:1:pos:R:3:initial_magmoms:R:1 pbc="T T T"
Si      -0.61511040       1.06152156       1.91505678       0.00000000
Si       0.89324586       1.79263305      -1.19564847       0.00000000
Si      -1.85925915      -0.82978002      -1.14520237       0.00000000
Si       1.67138658      -1.74785184       0.44812267       0.00000000
Si      -0.42244857      -2.15464572      -2.50517972       0.00000000
Si       2.31888150       0.55615689      -2.52371797       0.00000000
Si       1.52220276       0.98389971       3.16931784       0.00000000
Si       3.53817171      -0.77141295      -0.91984887       0.00000000
Si       0.94667706      -3.51631053      -1.00899100       0.00000000
Si       2.52942975       2.84091084       0.06932894       0.00000000
