10
Lattice="16.28999089631971 0.0 0.0 0.0 16.28999089631971 0.0 0.0 0.0 34.45770212530097" Properties=species:S:1:pos:R:3:initial_magmoms:R:1 pbc="T T T"
Si      -0.23827383      -2.08298601       1.13152265       0.00000000
Si       0.35750034       1.31268078       1.95661279       0.00000000
Si       2.00679768      -0.04790889      -1.31487219       0.00000000
Si      -2.12807673       0.54332037      -1.04627425       0.00000000
Si      -1.97221401       1.03703769       2.58967005       0.00000000
Si       1.17151164      -1.78289163       3.02580143       0.00000000
Si      -2.38751127       2.83610529      -0.39202550       0.00000000
Si       0.86148036      -3.67851006      -0.22976409       0.00000000
Si       1.77795576       1.60451613      -3.01801398       0.00000000
Si      -3.55283108      -0.63685755       1.63084950       0.00000000
