10
Lattice="16.28999089631971 0.0 0.0 0.0 16.28999089631971 0.0 0.0 0.0 34.45770212530097" Properties=species:S:1:pos:R:3:initial_magmoms:R:1 pbc="T T T"
Si       1.27329156      -1.31402049       1.52285900       0.00000000
Si       1.37078721       1.94520845       0.35074515       0.00000000
Si      -2.27329393       0.80428943       0.26542783       0.00000000
Si      -0.01883124      -1.14641268      -2.14847339       0.00000000
Si      -0.01412343      -3.26981418       1.66771926       0.00000000
Si       0.22748985       0.57397000      -3.75623621       0.00000000
Si       3.58999020       1.44515432      -0.28803209       0.00000000
Si      -2.79099176       1.21121363       2.48457400       0.00000000
Si       0.63576612       3.75924656      -0.95809694       0.00000000
Si       1.24835157      -0.48417952       3.71833271       0.00000000
