10
Lattice="16.28999089631971 0.0 0.0 0.0 16.28999089631971 0.0 0.0 0.0 34.45770212530097" Properties=species:S:1:pos:R:3:initial_magmoms:R:1 pbc="T T T"
Si       0.84227445       1.73332116       1.36464434       0.00000000
Si       1.69904700      -1.74042360       0.30853206       0.00000000
Si      -1.80942804      -0.75124593       1.47923694       0.00000000
Si      -0.29160729       0.40317750      -2.48622797       0.00000000
Si       2.11870998       0.48387816       2.95829328       0.00000000
Si       1.80160884      -0.94361454      -3.10102264       0.00000000
Si      -0.59331438      -2.22265647       2.95297645       0.00000000
Si       2.78099622       2.57655672       0.24943535       0.00000000
Si       0.70490088      -3.51041355       1.47127376       0.00000000
Si      -3.00447873      -2.45596185       0.38800880       0.00000000
