10
Lattice="16.28999089631971 0.0 0.0 0.0 16.28999089631971 0.0 0.0 0.0 34.45770212530097" Properties=species:S:1:pos:R:3:initial_magmoms:R:1 pbc="T T T"
Si      -1.33867962      -1.37932317       1.34915762       0.00000000
Si      -1.35819504       1.35532800      -1.35925374       0.00000000
Si       1.35682668      -1.35856971      -1.35856458       0.00000000
Si       1.35249354       1.37852496       1.35294797       0.00000000
Si       2.60345151      -0.03002247       2.71123689       0.00000000
Si      -2.71067229       2.71498914       0.00031012       0.00000000
Si      -2.71225242      -2.71458189      -0.00096482       0.00000000
Si       2.71441899       2.71451963       0.00172289       0.00000000
Si      -2.71399545      -0.00102627      -2.71630218       0.00000000
Si       0.00131949       2.71411377      -2.71623326       0.00000000
