10
Lattice="16.28999089631971 0.0 0.0 0.0 16.28999089631971 0.0 0.0 0.0 34.45770212530097" Properties=species:S:1:pos:R:3:initial_magmoms:R:1 pbc="T T T"
Si      -1.28741499      -1.95579369       0.14486026       0.00000000
Si      -0.02493999       0.82984096       2.19547372       0.00000000
Si      -1.27329156       1.31402049      -1.52285900       0.00000000
Si       2.23537896      -0.50362164      -0.76454792       0.00000000
Si       0.09749565       3.25922894      -1.17211385       0.00000000
Si      -2.04648012      -0.11425806       3.08479305       0.00000000
Si      -1.70838117      -2.33227188       2.47489138       0.00000000
Si       0.02928942      -3.88224909      -0.30074699       0.00000000
Si      -1.29212280       0.16760781      -3.67133238       0.00000000
Si       2.31790410      -0.69530607      -3.06973502       0.00000000
