10
Lattice="16.28999089631971 0.0 0.0 0.0 16.28999089631971 0.0 0.0 0.0 34.45770212530097" Properties=species:S:1:pos:R:3:initial_magmoms:R:1 pbc="T T T"
Si       0.32171121      -0.80650324      -2.21173776       0.00000000
Si       0.51372144       2.33547286      -0.07353278       0.00000000
Si       1.44269127      -0.64704369       1.81864408       0.00000000
Si      -2.34906687      -0.26042497       0.67874820       0.00000000
Si      -1.30767975       0.47378650      -3.33333659       0.00000000
Si      -2.05812747      -0.20005912       3.00478222       0.00000000
Si       0.52883856       2.79330331       2.32596511       0.00000000
Si      -0.11764638      -1.64432793       3.30666632       0.00000000
Si       3.24962694      -1.73050203       0.71268905       0.00000000
Si       0.23307732      -3.16530894      -2.23227456       0.00000000
