10
Lattice="16.28999089631971 0.0 0.0 0.0 16.28999089631971 0.0 0.0 0.0 34.45770212530097" Properties=species:S:1:pos:R:3:initial_magmoms:R:1 pbc="T T T"
Si      -1.07360874      -1.57910147       1.44566478       0.00000000
Si       0.42370290      -1.72289330      -1.67405948       0.00000000
Si       1.69104861       1.14287187       1.41503531       0.00000000
Si      -1.90633725       1.96435539      -0.09324259       0.00000000
Si       2.11214511       1.19431894      -1.94179597       0.00000000
Si       0.48637053       2.86731009      -1.57526919       0.00000000
Si      -2.35638108      -0.13725107       2.80769581       0.00000000
Si       0.37901943       2.60026812       2.78574624       0.00000000
Si      -1.68106284      -3.45774572       0.10230088       0.00000000
Si       1.86386922      -0.79894079      -3.33044214       0.00000000
