10
Lattice="16.28999089631971 0.0 0.0 0.0 16.28999089631971 0.0 0.0 0.0 34.45770212530097" Properties=species:S:1:pos:R:3:initial_magmoms:R:1 pbc="T T T"
Si       0.68285074       1.89565101       1.28217181       0.00000000
Si      -2.22905911       0.95285097      -0.28148513       0.00000000
Si       1.19909713       0.21978468      -2.21849148       0.00000000
Si      -0.21558675      -2.31984587       1.04882412       0.00000000
Si      -1.75060552      -2.80336239      -0.64908010       0.00000000
Si      -3.35228719      -1.03319325      -0.70876087       0.00000000
Si       2.13279106      -0.77243922       2.84841308       0.00000000
Si      -0.22112372      -0.96067017      -3.62257471       0.00000000
Si      -2.12723032       2.08811736      -2.31449069       0.00000000
Si      -1.18747703       2.16477810       2.87729766       0.00000000
