10
Lattice="16.28999089631971 0.0 0.0 0.0 16.28999089631971 0.0 0.0 0.0 34.45770212530097" Properties=species:S:1:pos:R:3:initial_magmoms:R:1 pbc="T T T"
Si      -1.35057132      -1.34978940       1.39955549       0.00000000
Si       1.36588392       1.36487394       1.39490369       0.00000000
Si       1.34967537      -1.40608764      -1.54132834       0.00000000
Si      -1.41258735       1.44866970      -1.44732423       0.00000000
Si       2.56904703       0.36170316      -2.55533155       0.00000000
Si      -2.69145009      -2.69539227       0.02442708       0.00000000
Si       2.72359026      -2.69633709       0.01428273       0.00000000
Si      -2.71080261       2.73642678       0.03437847       0.00000000
Si       2.73315249       2.72909628       0.02921670       0.00000000
Si       0.00720018      -2.70630657       2.75608706       0.00000000
