10
Lattice="16.28999089631971 0.0 0.0 0.0 16.28999089631971 0.0 0.0 0.0 34.45770212530097" Properties=species:S:1:pos:R:3:initial_magmoms:R:1 pbc="T T T"
Si       1.35842310      -1.35798327       1.36166578       0.00000000
Si      -1.35830907       1.36058967       1.36201035       0.00000000
Si       1.36726857       1.36422234      -1.36568699       0.00000000
Si      -1.36588392      -1.36487394      -1.39490369       0.00000000
Si       2.71187775      -2.71221984       0.00217084       0.00000000
Si      -2.71428867       2.71433754       0.00699492       0.00000000
Si       2.71221984       2.71699281       0.00516866       0.00000000
Si      -2.71645524      -2.71466334       0.00465179       0.00000000
Si      -0.00021177      -2.71464705       2.71916217       0.00000000
Si       2.71479366       0.00058644       2.71919663       0.00000000
