10
Lattice="16.28999089631971 0.0 0.0 0.0 16.28999089631971 0.0 0.0 0.0 34.45770212530097" Properties=species:S:1:pos:R:3:initial_magmoms:R:1 pbc="T T T"
Si      -1.71849726      -0.82152099      -1.37772307       0.00000000
Si       1.90003302      -1.55761722       0.35009045       0.00000000
Si       0.90598464       1.93236867      -1.27951857       0.00000000
Si      -1.53640764       0.18824724       2.03111039       0.00000000
Si      -0.21626604      -1.94525406      -2.74810665       0.00000000
Si      -2.68864821      -2.50877403       0.07704747       0.00000000
Si       1.13774247      -3.29595570      -1.22094044       0.00000000
Si       2.48507208       0.79263882      -2.71861084       0.00000000
Si       1.07031816      -2.47505373       2.93789978       0.00000000
Si       2.23881615       3.31574805       0.16153780       0.00000000
