10
Lattice="16.28999089631971 0.0 0.0 0.0 16.28999089631971 0.0 0.0 0.0 34.45770212530097" Properties=species:S:1:pos:R:3:initial_magmoms:R:1 pbc="T T T"
Si      -1.84018356       1.34931699       0.44801929       0.00000000
Si       0.79649955      -1.55942541       1.55035626       0.00000000
Si      -1.54235349      -1.48983453      -0.97305159       0.00000000
Si       1.45318203       1.61228646      -1.01932831       0.00000000
Si       1.63660743      -3.02889744      -0.09396621       0.00000000
Si      -2.36731167       1.69385049      -1.84769194       0.00000000
Si      -2.79562464      -1.99345617       1.03893476       0.00000000
Si      -0.29978487       2.72036484      -2.43454139       0.00000000
Si      -0.06874380      -3.13263216      -1.96863854       0.00000000
Si      -1.04049117       3.06538704       1.79755595       0.00000000
