10
Lattice="16.28999089631971 0.0 0.0 0.0 16.28999089631971 0.0 0.0 0.0 34.45770212530097" Properties=species:S:1:pos:R:3:initial_magmoms:R:1 pbc="T T T"
Si      -0.37651077      -1.34892603      -1.84855338       0.00000000
Si       1.54588842      -1.34157924       1.13822059       0.00000000
Si      -1.44159984       1.51537725       1.08348622       0.00000000
Si       0.93597453       1.60265907      -1.64490825       0.00000000
Si       1.82311164      -0.46998279      -2.32255379       0.00000000
Si      -2.43574596      -0.25461270       2.24622791       0.00000000
Si       0.39167676       2.48443677       2.37742913       0.00000000
Si       2.83405275      -1.96895601      -0.69711416       0.00000000
Si      -1.78494417       0.09184302      -3.04671727       0.00000000
Si      -1.33903800       2.31218631      -2.32606848       0.00000000
