10
Lattice="16.28999089631971 0.0 0.0 0.0 16.28999089631971 0.0 0.0 0.0 34.45770212530097" Properties=species:S:1:pos:R:3:initial_magmoms:R:1 pbc="T T T"
Si      -1.35653346       1.35690813      -1.35711736       0.00000000
Si       1.35633798       1.35702216       1.35753085       0.00000000
Si       1.35812988      -1.35786924      -1.35742748       0.00000000
Si      -1.35946566      -1.35928647       1.35746193       0.00000000
Si      -0.00042354      -2.71243161      -2.71475158       0.00000000
Si      -2.71274112       0.00100998       2.71513061       0.00000000
Si      -2.71319724      -0.00055386      -2.71523399       0.00000000
Si      -2.71448415       2.71456560      -0.00020675       0.00000000
Si       0.00065160      -2.71192662       2.71754265       0.00000000
Si       0.00081450       2.71551042      -2.71402797       0.00000000
