10
Lattice="16.28999089631971 0.0 0.0 0.0 16.28999089631971 0.0 0.0 0.0 34.45770212530097" Properties=species:S:1:pos:R:3:initial_magmoms:R:1 pbc="T T T"
Si      -1.33894515      -1.35233064       1.37227531       0.00000000
Si       1.37788965       1.36348929       1.36541822       0.00000000
Si       1.41569874      -1.30253211      -1.38881157       0.00000000
Si      -1.43995292       1.37541357      -1.37721999       0.00000000
Si       2.01357432       0.66386637      -2.64310295       0.00000000
Si       0.31908852       2.50054758      -2.56186646       0.00000000
Si      -2.67373376      -2.71388142       0.01927565       0.00000000
Si      -2.69549771      -0.15382647      -2.70159836       0.00000000
Si      -2.69275515       0.00506619       2.72598135       0.00000000
Si       0.01777239      -2.70933651       2.72536111       0.00000000
