10
Lattice="16.28999089631971 0.0 0.0 0.0 16.28999089631971 0.0 0.0 0.0 34.45770212530097" Properties=species:S:1:pos:R:3:initial_magmoms:R:1 pbc="T T T"
Si      -0.79969239      -1.71607005      -1.34953666       0.00000000
Si      -0.51354225      -1.04767506       2.13806715       0.00000000
Si      -1.31870808       1.62380349      -1.25439889       0.00000000
Si       2.43454050       0.09221769      -0.24592476       0.00000000
Si       1.04049117      -3.06538704      -1.79755595       0.00000000
Si       0.18844272       1.75309722      -3.29946465       0.00000000
Si       3.17394360       0.17513379       2.04027614       0.00000000
Si      -2.55840966      -2.85562071      -0.28537885       0.00000000
Si      -2.66846490      -2.02241979       1.92229290       0.00000000
Si       2.91211443       2.04328728      -1.52623585       0.00000000
