10
Lattice="16.28999089631971 0.0 0.0 0.0 16.28999089631971 0.0 0.0 0.0 34.45770212530097" Properties=species:S:1:pos:R:3:initial_magmoms:R:1 pbc="T T T"
Si      -0.51414498      -1.23663906       1.89703539       0.00000000
Si       0.67121316      -1.56050055      -1.65345376       0.00000000
Si      -1.57701861       1.54601874      -0.87656997       0.00000000
Si       1.52495577       1.61223759       0.86258014       0.00000000
Si      -0.02805138       2.77088013      -2.18506749       0.00000000
Si      -2.60736111       0.11015298       2.51183006       0.00000000
Si       1.76086755      -1.94616630       2.57819563       0.00000000
Si       3.27712446       0.28940814       1.72743449       0.00000000
Si      -0.68178537      -3.48482196      -1.16560134       0.00000000
Si      -0.96005115      -3.45698235       1.17638661       0.00000000
