10
Lattice="16.28999089631971 0.0 0.0 0.0 16.28999089631971 0.0 0.0 0.0 34.45770212530097" Properties=species:S:1:pos:R:3:initial_magmoms:R:1 pbc="T T T"
Si       1.19505069       1.70471592       1.09122814       0.00000000
Si      -1.75904144      -1.12513401       1.18464647       0.00000000
Si      -0.54415116       1.06585470      -2.11737292       0.00000000
Si       1.69448580      -1.83668121      -0.08123649       0.00000000
Si      -1.92904225      -0.91150695      -2.77107035       0.00000000
Si       2.41116435       0.23330538       2.56496765       0.00000000
Si      -1.14425847      -2.92350114      -1.73485775       0.00000000
Si      -0.31908852      -2.50054758       2.56186646       0.00000000
Si       1.29518532      -2.64510504      -2.25609971       0.00000000
Si       3.00447873       2.45596185      -0.38800880       0.00000000
