10
Lattice="16.28999089631971 0.0 0.0 0.0 16.28999089631971 0.0 0.0 0.0 34.45770212530097" Properties=species:S:1:pos:R:3:initial_magmoms:R:1 pbc="T T T"
Si       1.35649653      -1.35734796      -1.36528384       0.00000000
Si      -1.35980137       1.35922131      -1.36583516       0.00000000
Si       1.38769514       1.35200484       1.35691061       0.00000000
Si      -1.37047132      -1.37308410       1.39129942       0.00000000
Si      -0.02734453       2.62330902       2.70024488       0.00000000
Si       2.71205422      -2.71464705      -0.00506529       0.00000000
Si      -2.71512937      -2.71208952      -0.00547878       0.00000000
Si       2.71531222       2.71575477      -0.01209466       0.00000000
Si      -2.71553662       2.71816569      -0.00778745       0.00000000
Si      -0.00097408      -2.71401174      -2.72312481       0.00000000
