10
Lattice="16.28999089631971 0.0 0.0 0.0 16.28999089631971 0.0 0.0 0.0 34.45770212530097" Properties=species:S:1:pos:R:3:initial_magmoms:R:1 pbc="T T T"
Si      -2.05824150      -1.14453540      -0.15140723       0.00000000
Si       0.63214974      -0.24218343       2.26652554       0.00000000
Si      -0.22675680       2.37671100      -0.12239383       0.00000000
Si       1.89987894      -0.65454849      -1.31011702       0.00000000
Si       2.80398371       0.68538546       1.94189935       0.00000000
Si       3.48049601       1.01934675      -0.35129647       0.00000000
Si      -3.25772307      -0.30970548       1.79104344       0.00000000
Si       1.26035015      -2.52574821       2.53336613       0.00000000
Si      -1.96072956       3.10055715       1.30780836       0.00000000
Si      -2.79764460      -1.22745150      -2.43760813       0.00000000
