10
Lattice="16.28999089631971 0.0 0.0 0.0 16.28999089631971 0.0 0.0 0.0 34.45770212530097" Properties=species:S:1:pos:R:3:initial_magmoms:R:1 pbc="T T T"
Si      -0.63214974       0.24218343      -2.26652554       0.00000000
Si       0.62820041      -2.28356478       0.26684059       0.00000000
Si       2.17183397       0.92756889      -0.32462619       0.00000000
Si      -1.34405532       1.04638815       1.84252328       0.00000000
Si       1.07210259      -2.10230595       2.56565302       0.00000000
Si      -0.85890654       2.61889443      -2.38891937       0.00000000
Si      -2.69039124      -0.90235197      -2.41793277       0.00000000
Si      -3.18034557      -1.60251246       1.17890202       0.00000000
Si       1.26772920      -0.41236506      -3.57664256       0.00000000
Si       2.12061169       3.23314146       0.10027197       0.00000000
