10
Lattice="16.28999089631971 0.0 0.0 0.0 16.28999089631971 0.0 0.0 0.0 34.45770212530097" Properties=species:S:1:pos:R:3:initial_magmoms:R:1 pbc="T T T"
Si       2.08635804       0.97891497       0.43668270       0.00000000
Si       0.47547252      -1.98320976      -1.21639202       0.00000000
Si      -1.82895975       1.02781755      -1.15274861       0.00000000
Si      -0.93556728       0.57006855       2.16184298       0.00000000
Si       1.09037115       3.10281236       0.81737161       0.00000000
Si       2.56878639      -0.33011685       2.37913337       0.00000000
Si      -3.70631709      -0.08037486      -0.29092654       0.00000000
Si      -0.84693339       2.92887425       2.18237978       0.00000000
Si      -0.06967233      -1.34291502      -3.50996687       0.00000000
Si      -3.22310682      -0.06582789       2.04272264       0.00000000
