10
Lattice="16.28999089631971 0.0 0.0 0.0 16.28999089631971 0.0 0.0 0.0 34.45770212530097" Properties=species:S:1:pos:R:3:initial_magmoms:R:1 pbc="T T T"
Si       0.71164005       1.35363384      -1.81295855       0.00000000
Si       0.97868202      -2.03199831       0.91895297       0.00000000
Si      -1.53334090      -0.40138560      -1.91812352       0.00000000
Si      -0.84510875       1.99474308       1.42865159       0.00000000
Si      -0.12628660      -1.72734273       2.99499623       0.00000000
Si      -3.06808696       0.56167920       1.66727131       0.00000000
Si      -2.39661316      -1.63958850       2.40180655       0.00000000
Si       1.12144758       3.51561006       1.08176571       0.00000000
Si       3.87724317      -0.35767953      -0.43089381       0.00000000
Si       0.91420620       3.65739822      -1.24847216       0.00000000
