10
Lattice="16.28999089631971 0.0 0.0 0.0 16.28999089631971 0.0 0.0 0.0 34.45770212530097" Properties=species:S:1:pos:R:3:initial_magmoms:R:1 pbc="T T T"
Si      -0.72275472      -1.42443018       1.70069530       0.00000000
Si       1.73397276      -0.72384615      -1.43020218       0.00000000
Si       1.24616871       1.61114616       1.29747104       0.00000000
Si      -1.77038091       0.17633925      -1.64749257       0.00000000
Si      -1.68174702       2.53514495      -1.62695577       0.00000000
Si       1.25154441       0.58518567      -3.37265285       0.00000000
Si      -0.56076696       2.69460450       2.40342607       0.00000000
Si      -1.29699351      -3.41026263       0.48323508       0.00000000
Si       3.55086881       0.66143916      -0.87936105       0.00000000
Si       1.24882398      -2.29635243       2.80124046       0.00000000
