10
Lattice="16.28999089631971 0.0 0.0 0.0 16.28999089631971 0.0 0.0 0.0 34.45770212530097" Properties=species:S:1:pos:R:3:initial_magmoms:R:1 pbc="T T T"
Si      -1.49757391      -1.52826264      -0.85651558       0.00000000
Si      -0.47389239       2.26059588      -0.54663729       0.00000000
Si       1.93324833      -0.74088549      -1.23072643       0.00000000
Si       0.00575037      -0.06437808       2.42272239       0.00000000
Si       2.17489419       0.52922952       2.74459197       0.00000000
Si      -1.18283808      -1.29285585      -3.15264030       0.00000000
Si       1.59733224       3.24073260       0.06305763       0.00000000
Si      -3.53703860      -0.76600467       0.05744102       0.00000000
Si       2.66826942      -2.55492360       0.07811565       0.00000000
Si       3.14569674       1.79481591       1.09444615       0.00000000
