10
Lattice="16.28999089631971 0.0 0.0 0.0 16.28999089631971 0.0 0.0 0.0 34.45770212530097" Properties=species:S:1:pos:R:3:initial_magmoms:R:1 pbc="T T T"
Si      -0.20724138       0.14178816      -2.33023787       0.00000000
Si      -0.25943454       2.29278492       0.65424876       0.00000000
Si       2.12807673      -0.54332037       1.04627425       0.00000000
Si      -1.96655633      -1.52086698       0.34688588       0.00000000
Si      -1.42475435      -1.18017792       2.67712375       0.00000000
Si      -3.48647444       0.02177973      -0.75066146       0.00000000
Si      -0.40980753      -2.16197622      -2.89472426       0.00000000
Si       0.15586272       0.49371732       3.63594430       0.00000000
Si       1.07043219       3.49132167      -0.89024969       0.00000000
Si      -1.12144758      -3.51561006      -1.08176571       0.00000000
