10
Lattice="16.28999089631971 0.0 0.0 0.0 16.28999089631971 0.0 0.0 0.0 34.45770212530097" Properties=species:S:1:pos:R:3:initial_magmoms:R:1 pbc="T T T"
Si       1.35584276       1.35797675      -1.35766868       0.00000000
Si       1.35730886      -1.35709465       1.35711736       0.00000000
Si      -1.35757650       1.35737402       1.35708290       0.00000000
Si      -1.35698807      -1.35865876      -1.35684169       0.00000000
Si      -0.00087477       2.71498262      -2.71075448       0.00000000
Si      -0.00175769      -2.71365077      -2.71292532       0.00000000
Si       2.71407038      -0.00017430       2.71330435       0.00000000
Si      -0.00010588       2.71403780       2.71492387       0.00000000
Si       2.71455908      -2.71441640       0.00027566       0.00000000
Si      -2.71483994      -2.71505171      -0.00003446       0.00000000
