10
Lattice="16.28999089631971 0.0 0.0 0.0 16.28999089631971 0.0 0.0 0.0 34.45770212530097" Properties=species:S:1:pos:R:3:initial_magmoms:R:1 pbc="T T T"
Si      -1.53199305      -0.21421350       1.82102166       0.00000000
Si      -1.60091604       0.81194247      -1.60855535       0.00000000
Si       1.03744494      -2.24083611      -0.08190600       0.00000000
Si       1.72502955       1.57907115       1.06415781       0.00000000
Si      -2.36582928       2.78783802      -0.52878819       0.00000000
Si      -2.42039752       2.13413661       2.03042123       0.00000000
Si      -2.91688414      -2.19157515       1.16732423       0.00000000
Si       3.81824568       0.23227911       0.44936314       0.00000000
Si       3.37233951      -1.98806418      -0.27128564       0.00000000
Si       0.63232893      -3.24174258      -2.16856224       0.00000000
