10
Lattice="16.28999089631971 0.0 0.0 0.0 16.28999089631971 0.0 0.0 0.0 34.45770212530097" Properties=species:S:1:pos:R:3:initial_magmoms:R:1 pbc="T T T"
Si      -1.42628237       0.78512913       1.78928610       0.00000000
Si      -0.81809522      -1.52117649      -1.72974316       0.00000000
Si       1.87684811      -1.46178315       0.79759288       0.00000000
Si       0.86930999       1.99972782      -1.82364045       0.00000000
Si      -2.26720475      -2.13363162       0.22952288       0.00000000
Si      -1.40238494      -1.58179158       2.37716928       0.00000000
Si      -0.08898740       0.33844104      -3.20653218       0.00000000
Si       2.80835918       1.73289762      -0.13438511       0.00000000
Si       3.85280882      -0.46475370      -0.09817005       0.00000000
Si      -0.21412718       1.84948515       3.43140327       0.00000000
