10
Lattice="16.28999089631971 0.0 0.0 0.0 16.28999089631971 0.0 0.0 0.0 34.45770212530097" Properties=species:S:1:pos:R:3:initial_magmoms:R:1 pbc="T T T"
Si      -1.32986673      -1.19853675       1.54449845       0.00000000
Si      -0.40027788       2.23252888       0.73329477       0.00000000
Si       2.36299482      -0.26515233      -0.26697843       0.00000000
Si      -0.34616250      -0.15485274      -2.37196617       0.00000000
Si       1.06767918       1.91839904      -2.41662337       0.00000000
Si       0.69828714      -2.35250406      -2.33575110       0.00000000
Si      -3.36864887      -0.03826521       1.19382222       0.00000000
Si      -2.77117172       2.31237106       0.90913252       0.00000000
Si      -1.07043219      -3.49132167       0.89024969       0.00000000
Si      -1.27767357      -3.34953351      -1.43998818       0.00000000
