10
Lattice="16.28999089631971 0.0 0.0 0.0 16.28999089631971 0.0 0.0 0.0 34.45770212530097" Properties=species:S:1:pos:R:3:initial_magmoms:R:1 pbc="T T T"
Si       0.05122228      -2.30557257      -0.42489816       0.00000000
Si      -1.61141887       0.73708992       1.53660763       0.00000000
Si      -1.16262219       0.77103828      -1.93835020       0.00000000
Si       2.21242146      -0.07377741       0.91492142       0.00000000
Si       0.72773457      -1.97161128      -2.71809398       0.00000000
Si       0.56053401       0.35417718      -3.40201083       0.00000000
Si       1.79145528      -0.45025560       3.24495254       0.00000000
Si      -2.01290221       2.89893812      -1.30343223       0.00000000
Si      -0.65872525       2.40618973       2.86271303       0.00000000
Si      -1.96176790      -0.96340689       3.12180064       0.00000000
