10
Lattice="16.290000149 0.0 0.0 0.0 16.290000149 0.0 0.0 0.0 29.1751946751" Properties=species:S:1:pos:R:3:initial_magmoms:R:1 pbc="T T T"
H        0.44514054       1.28348911      -0.66805361       0.00000000
Si      -0.81375067       0.98181460       1.94683157       0.00000000
Si      -1.87986602      -0.70667650      -1.27043385       0.00000000
Si       2.00881766      -1.37052658      -0.08215735       0.00000000
H        0.97629229      -0.26235045      -2.47889959       0.00000000
H       -0.65588428      -2.67646331      -1.06142276       0.00000000
Si       3.17740851       0.68958829      -0.67388865       0.00000000
Si      -2.32189517       2.28646442       0.65731714       0.00000000
Si       0.78613912      -2.97303906      -1.49557883       0.00000000
Si       2.01104939       0.84405007      -2.69208274       0.00000000
