10
Lattice="16.290000149 0.0 0.0 0.0 16.290000149 0.0 0.0 0.0 29.1751946751" Properties=species:S:1:pos:R:3:initial_magmoms:R:1 pbc="T T T"
Si      -0.44450523       0.24741252      -2.28143079       0.00000000
Si       0.81471178       1.85777678       1.17762989       0.00000000
Si      -1.87240520      -0.80684371       1.19076165       0.00000000
Si       1.62963532      -1.73636741       0.08920549       0.00000000
Si       2.19170549       0.59339584       2.59199081       0.00000000
Si      -0.66780856      -2.20195190       2.63241888       0.00000000
Si      -2.15967935       1.87745510      -2.18392729       0.00000000
Si      -0.49694274      -2.04582854      -2.95479428       0.00000000
Si       1.69414373      -2.43714692      -2.13421275       0.00000000
Si       0.64492111      -3.52745129       1.23420643       0.00000000
