10
Lattice="16.290000149 0.0 0.0 0.0 16.290000149 0.0 0.0 0.0 29.1751946751" Properties=species:S:1:pos:R:3:initial_magmoms:R:1 pbc="T T T"
Si       1.36907677       1.34794864       1.33829536       0.00000000
Si       1.44067132      -1.33261324      -1.28289166       0.00000000
Si      -1.34778574      -1.38812630       1.33537784       0.00000000
Si      -1.37889964       1.33978735      -1.35705501       0.00000000
Si       0.11556126      -2.66751815      -2.62172967       0.00000000
Si       0.03134196       2.74566324      -2.61278748       0.00000000
Si       0.00501732       2.69579954       2.68776481       0.00000000
Si      -2.70866864      -0.02450016       2.67991668       0.00000000
Si       2.69527826      -0.03424158       2.69864716       0.00000000
Si      -2.80020216      -0.08822664      -2.59224814       0.00000000
