10
Lattice="16.290000149 0.0 0.0 0.0 16.290000149 0.0 0.0 0.0 29.1751946751" Properties=species:S:1:pos:R:3:initial_magmoms:R:1 pbc="T T T"
Si       1.72020773      -0.75401524      -1.37858630       0.00000000
Si       1.36057339       1.34697124       1.33943319       0.00000000
Si      -1.42368085       1.18221418      -1.45858468       0.00000000
Si      -1.18952839      -1.69298714       1.18410445       0.00000000
Si      -1.64464330      -0.66979594      -2.89811796       0.00000000
Si       0.67142494      -0.84165544      -3.49168730       0.00000000
Si       2.56401344      -2.59804325      -0.25516625       0.00000000
Si      -2.64844956      -0.40718484       2.52447124       0.00000000
Si      -0.08392608       2.54371610       2.69253816       0.00000000
Si      -2.89453755       2.40124376      -0.12880848       0.00000000
