10
Lattice="16.290000149 0.0 0.0 0.0 16.290000149 0.0 0.0 0.0 29.1751946751" Properties=species:S:1:pos:R:3:initial_magmoms:R:1 pbc="T T T"
Si       1.31448898       1.35896068       1.34302465       0.00000000
Si      -1.37699371       1.26438094      -1.41436092       0.00000000
Si       1.28474344      -1.44904438      -1.32848665       0.00000000
Si      -1.42688998      -1.39211083       1.27907263       0.00000000
Si      -2.19170549      -0.59339584      -2.59199081       0.00000000
Si      -0.56207017      -2.32976324      -2.50278532       0.00000000
Si       2.62153343       2.64932417      -0.12697920       0.00000000
Si       2.63251289      -0.03282435       2.68251619       0.00000000
Si      -0.10406052       2.68962563       2.64397576       0.00000000
Si       2.53645076      -2.82056466       0.08099034       0.00000000
