10
Lattice="16.290000149 0.0 0.0 0.0 16.290000149 0.0 0.0 0.0 29.1751946751" Properties=species:S:1:pos:R:3:initial_magmoms:R:1 pbc="T T T"
H       -1.03475710      -1.10640052       0.21318315       0.00000000
Si       1.49304204      -1.06820047      -1.42488733       0.00000000
Si       1.16635912      -0.15446178       2.01819409       0.00000000
Si      -1.25877718       1.63913240      -1.15746750       0.00000000
H       -1.56590884       0.43943904       2.02402913       0.00000000
Si      -0.00223173      -2.21457665       2.60992539       0.00000000
Si      -2.56148849      -0.02955006      -2.33136063       0.00000000
Si      -2.01104939      -0.84405007       2.69208274       0.00000000
Si       0.06851574      -2.50517396      -2.59052389       0.00000000
Si       3.05393520      -2.14291694      -0.05584132       0.00000000
