10
Lattice="16.290000149 0.0 0.0 0.0 16.290000149 0.0 0.0 0.0 29.1751946751" Properties=species:S:1:pos:R:3:initial_magmoms:R:1 pbc="T T T"
Si      -2.30734820      -0.09986585       0.36110138       0.00000000
H       -0.88931998       1.57739329      -1.49327399       0.00000000
Si       0.97832854      -0.40518443      -2.15184566       0.00000000
Si       1.03021219       2.14808087       0.39727863       0.00000000
Si       0.05315427      -2.06886260       1.28878505       0.00000000
H       -2.92035720       1.20260926      -0.07938570       0.00000000
Si       2.84824137       1.25820703       1.54987387       0.00000000
Si       2.89660638      -1.46497112      -1.37578548       0.00000000
Si       3.52948917      -0.79246941       0.77276338       0.00000000
Si      -3.14522436      -1.75780505      -1.04488042       0.00000000
