10
Lattice="16.290000149 0.0 0.0 0.0 16.290000149 0.0 0.0 0.0 29.1751946751" Properties=species:S:1:pos:R:3:initial_magmoms:R:1 pbc="T T T"
Si       1.67816324      -1.67738132      -0.25522460       0.00000000
Si      -1.86018770      -0.83346157      -1.25820945       0.00000000
Si      -0.63596161       0.33660027       2.32955177       0.00000000
Si       0.69346531       1.85777678      -1.42345775       0.00000000
H        2.22019670       0.78092632       1.12108603       0.00000000
H       -1.05801922       2.49559544       0.11124502       0.00000000
H       -2.61659756      -0.28113282       1.24572246       0.00000000
H        0.58802014      -1.63318655       2.53856286       0.00000000
H       -0.49199058       2.36972261      -2.22309148       0.00000000
H       -3.26705727       0.14222799       1.20146369       0.00000000
