10
Lattice="16.290000149 0.0 0.0 0.0 16.290000149 0.0 0.0 0.0 29.1751946751" Properties=species:S:1:pos:R:3:initial_magmoms:R:1 pbc="T T T"
Si      -1.50089545      -1.35423658       1.16499470       0.00000000
Si       1.33924978       1.27786906       1.43819122       0.00000000
Si       1.38893428      -1.35979147      -1.31127912       0.00000000
Si      -1.34343631       1.34527708      -1.38132877       0.00000000
H       -0.82676638      -2.15500412       2.26046491       0.00000000
Si       2.68907177       2.66435984       0.08104869       0.00000000
Si      -0.01218492      -2.73002484      -2.62410453       0.00000000
Si       2.72878679      -0.01000206      -2.68359276       0.00000000
Si       2.73784404      -2.67283064       0.11810119       0.00000000
Si      -2.94215322      -0.14136462       2.45375057       0.00000000
