10
Lattice="16.290000149 0.0 0.0 0.0 16.290000149 0.0 0.0 0.0 29.1751946751" Properties=species:S:1:pos:R:3:initial_magmoms:R:1 pbc="T T T"
Si       1.74728171       0.31974501      -1.49315729       0.00000000
Si      -1.91827784       1.05978668      -0.77606018       0.00000000
Si       0.63288280       0.67250171       2.14854886       0.00000000
Si      -0.03433932      -2.14868849       0.97246759       0.00000000
Si       1.87727591      -1.98534866      -1.72340792       0.00000000
Si      -0.61367689      -1.11497395       2.97280646       0.00000000
H        1.36184401       3.04298343       0.02217315       0.00000000
Si      -0.74953549       2.50121061      -2.27478993       0.00000000
Si      -2.89660638       1.46497112       1.37578548       0.00000000
Si       2.16689582      -2.86378691       0.52176918       0.00000000
