10
Lattice="16.290000149 0.0 0.0 0.0 16.290000149 0.0 0.0 0.0 29.1751946751" Properties=species:S:1:pos:R:3:initial_magmoms:R:1 pbc="T T T"
Si       1.34363342       1.33015996      -1.38106619       0.00000000
Si      -1.33328601      -1.35796699      -1.37807573       0.00000000
Si      -1.35345303       1.38971620       1.32825909       0.00000000
Si       1.37018612      -1.34840476       1.36315262       0.00000000
Si      -2.62623962      -2.67423158       0.09058898       0.00000000
Si       2.70752997       2.69648372      -0.01820532       0.00000000
Si      -2.69255621       0.03513753       2.71297218       0.00000000
Si      -0.04384942       2.66839976      -2.75298596       0.00000000
Si       0.01224356       2.71810055       2.70684539       0.00000000
Si       2.73229077       0.00496845       2.71518949       0.00000000
