10
Lattice="16.290000149 0.0 0.0 0.0 16.290000149 0.0 0.0 0.0 29.1751946751" Properties=species:S:1:pos:R:3:initial_magmoms:R:1 pbc="T T T"
Si      -2.20123514       0.71509843       0.45069841       0.00000000
Si      -0.27981333      -2.03201462       1.19204010       0.00000000
Si       1.57833811       1.30215745       1.22357849       0.00000000
Si      -0.28961991       0.87843826      -2.24517711       0.00000000
H        2.24081984      -0.96560605      -1.65440859       0.00000000
H        0.78890842      -1.86988025      -2.18507621       0.00000000
H        1.59738112      -2.62541045      -0.53877832       0.00000000
H        1.03135249      -2.49953762       1.79555818       0.00000000
Si      -2.16689582       2.86378691      -0.52176918       0.00000000
Si      -0.41961411       3.18353192      -2.01492647       0.00000000
