10
Lattice="16.290000149 0.0 0.0 0.0 16.290000149 0.0 0.0 0.0 29.1751946751" Properties=species:S:1:pos:R:3:initial_magmoms:R:1 pbc="T T T"
Si      -0.92031985       1.02868093      -1.84996992       0.00000000
Si       1.11244411       1.74983924       1.03735322       0.00000000
Si       1.32245479      -1.55776384      -1.12511221       0.00000000
Si      -1.91611127      -1.05712327       0.88955169       0.00000000
H        0.55622206      -1.29689578       2.35802676       0.00000000
Si       0.73539577      -2.68926237       1.75599662       0.00000000
Si      -1.65330470      -1.02912076      -2.74106789       0.00000000
Si      -2.19462140       2.53822637      -0.53052174       0.00000000
Si      -0.44898498      -2.90741153      -1.77469792       0.00000000
Si      -1.17385741      -3.24356546       0.48439576       0.00000000
