10
Lattice="16.290000149 0.0 0.0 0.0 16.290000149 0.0 0.0 0.0 29.1751946751" Properties=species:S:1:pos:R:3:initial_magmoms:R:1 pbc="T T T"
Si      -1.37821546       1.34765542       1.32055684       0.00000000
Si      -1.37179720      -1.36050823      -1.32627517       0.00000000
Si       1.35055504       1.39248550      -1.32653775       0.00000000
Si       1.35650089      -1.33090930       1.38588010       0.00000000
Si       0.04300560       2.65553066       2.63440338       0.00000000
Si       0.01285281      -2.67517640      -2.68385533       0.00000000
Si       2.70324407      -2.67833666       0.02039346       0.00000000
Si      -2.72834696       0.00985545      -2.66404538       0.00000000
Si      -2.72608265      -0.00979029       2.67419834       0.00000000
Si       2.69353523       0.06157620      -2.71291383       0.00000000
