10
Lattice="16.290000149 0.0 0.0 0.0 16.290000149 0.0 0.0 0.0 29.1751946751" Properties=species:S:1:pos:R:3:initial_magmoms:R:1 pbc="T T T"
Si      -1.39584124       1.28228365      -1.36014758       0.00000000
Si       1.43817895      -1.36756180      -1.23554032       0.00000000
Si      -1.37779192      -1.31815423       1.35480852       0.00000000
Si       0.87733054       1.88926535       1.06883326       0.00000000
Si      -2.43287894       0.14903721       2.83375748       0.00000000
Si       0.05492988      -2.72059292      -2.57234774       0.00000000
Si      -2.57872331       2.73463491       0.05058979       0.00000000
Si      -0.01322748       2.61913880      -2.70033932       0.00000000
Si       2.77899258      -0.03560994      -2.60750385       0.00000000
Si      -2.74652661      -0.05945850      -2.67335226       0.00000000
