10
Lattice="16.290000149 0.0 0.0 0.0 16.290000149 0.0 0.0 0.0 29.1751946751" Properties=species:S:1:pos:R:3:initial_magmoms:R:1 pbc="T T T"
Si       0.81375067      -0.98181460      -1.94683157       0.00000000
Si      -1.33509583      -1.32247108       1.40338521       0.00000000
Si       1.59021352       1.14005566       1.33421083       0.00000000
Si      -1.50814450       1.30464982      -1.28951443       0.00000000
H        1.25889121       0.30167451      -2.61488517       0.00000000
H        0.68760091       1.88690330       2.30720357       0.00000000
Si      -1.06611535      -1.68849110      -3.21726542       0.00000000
Si      -2.90975241      -2.43286265      -0.06237657       0.00000000
Si      -2.55720422       2.79764463       0.16705716       0.00000000
Si      -2.53114022       0.14897205       2.83457439       0.00000000
