10
Lattice="16.290000149 0.0 0.0 0.0 16.290000149 0.0 0.0 0.0 29.1751946751" Properties=species:S:1:pos:R:3:initial_magmoms:R:1 pbc="T T T"
Si       1.41074985       1.39242034      -1.25362894       0.00000000
Si       1.36828182      -1.34636851       1.37173013       0.00000000
Si      -1.27807823       1.34641738       1.45657159       0.00000000
Si      -1.39217273      -1.28402668      -1.43673830       0.00000000
Si      -2.69037172      -2.63845874       0.00029175       0.00000000
Si      -2.59575940       2.77953666       0.17945662       0.00000000
Si       0.13132835       2.76377120      -2.64255493       0.00000000
Si       2.73867808       0.07659558      -2.67139169       0.00000000
Si       2.71333084       2.71667518       0.17335901       0.00000000
Si       0.02421834      -2.69514794       2.74030934       0.00000000
