10
Lattice="16.290000149 0.0 0.0 0.0 16.290000149 0.0 0.0 0.0 29.1751946751" Properties=species:S:1:pos:R:3:initial_magmoms:R:1 pbc="T T T"
Si      -1.31116582       0.46752300      -0.60351808       0.00000000
H        0.56602864      -0.12587283      -2.33433650       0.00000000
Si       1.75148453      -0.63781867      -1.53470277       0.00000000
Si       1.05801922      -2.49559544      -0.11124502       0.00000000
Si      -2.57854412       0.71272009       1.33009713       0.00000000
Si      -2.28449333      -1.52567254      -1.48408380       0.00000000
Si       0.42205761      -2.15899517       2.21830675       0.00000000
Si      -1.36150192      -0.61144516       2.84703220       0.00000000
Si       3.05419584       1.03086379      -0.36080963       0.00000000
Si      -1.03135249       2.49953762      -1.79555818       0.00000000
