10
Lattice="16.290000149 0.0 0.0 0.0 16.290000149 0.0 0.0 0.0 29.1751946751" Properties=species:S:1:pos:R:3:initial_magmoms:R:1 pbc="T T T"
Si      -2.07247898       0.71061542      -0.85036940       0.00000000
Si      -0.77926474      -1.49617461       1.71509299       0.00000000
Si       0.90828154       2.08461177       0.81462979       0.00000000
Si       1.04378176      -0.67400201      -2.07744891       0.00000000
H       -1.39950649       2.27860938       1.72428318       0.00000000
Si      -1.31672071       1.29499474      -3.00513258       0.00000000
Si      -2.67871133       2.23975773       0.90276805       0.00000000
H        0.45271539      -3.57888371      -0.53842822       0.00000000
Si      -2.28736037      -2.83728145       0.52433660       0.00000000
Si      -3.31421030      -1.30602144      -0.95359124       0.00000000
