10
Lattice="16.290000149 0.0 0.0 0.0 16.290000149 0.0 0.0 0.0 29.1751946751" Properties=species:S:1:pos:R:3:initial_magmoms:R:1 pbc="T T T"
Si       1.35148357       1.39901779      -1.31904848       0.00000000
Si      -1.35122293       1.37039626       1.35647150       0.00000000
Si       1.37818288      -1.34604271       1.35883469       0.00000000
Si      -1.36389655      -1.36632376      -1.36286087       0.00000000
Si       2.73351090       0.03997566      -2.63923479       0.00000000
Si      -2.70752997      -2.69648372       0.01820532       0.00000000
Si       2.69081480       2.72170064       0.08533744       0.00000000
Si      -2.69528641       0.02161683       2.72505071       0.00000000
Si       0.02476080      -2.69151527       2.73339481       0.00000000
Si      -2.71950475       2.71676477      -0.01525863       0.00000000
