10
Lattice="16.290000149 0.0 0.0 0.0 16.290000149 0.0 0.0 0.0 29.1751946751" Properties=species:S:1:pos:R:3:initial_magmoms:R:1 pbc="T T T"
Si       1.33188670       1.34013107      -1.32951654       0.00000000
Si      -1.32911740       1.41996836       1.28557578       0.00000000
Si       1.43596351      -1.34615511       1.25940563       0.00000000
Si      -1.36277254      -1.28210475      -1.40763312       0.00000000
Si       0.05747112      -2.69066657       2.59402491       0.00000000
Si      -2.67641444       0.04481868       2.62144959       0.00000000
Si       0.05836707       2.76912246       2.60916683       0.00000000
Si       2.78430312       0.04023141       2.59810944       0.00000000
Si      -0.04072500      -2.76907034      -2.61490560       0.00000000
Si      -2.71116101      -2.67885632      -0.09902061       0.00000000
