10
Lattice="16.290000149 0.0 0.0 0.0 16.290000149 0.0 0.0 0.0 29.1751946751" Properties=species:S:1:pos:R:3:initial_magmoms:R:1 pbc="T T T"
Si      -1.32524038       1.35972631       1.36633272       0.00000000
Si       1.37889964      -1.33978735       1.35705501       0.00000000
Si       1.41024160       1.40587588      -1.25573247       0.00000000
Si      -1.42130251      -1.42801399      -1.23519313       0.00000000
Si       0.07613946      -2.66266406      -2.51588790       0.00000000
Si       2.66548385       0.00503361      -2.62164798       0.00000000
Si      -2.67300983      -0.05649372      -2.64467013       0.00000000
Si       0.05406651       2.72319932       2.67020134       0.00000000
Si      -2.64326429       2.75151135       0.02684118       0.00000000
Si      -2.69482214       0.00097740       2.70349024       0.00000000
