10
Lattice="16.290000149 0.0 0.0 0.0 16.290000149 0.0 0.0 0.0 29.1751946751" Properties=species:S:1:pos:R:3:initial_magmoms:R:1 pbc="T T T"
H        1.27920484       0.03885165       0.82151513       0.00000000
Si      -1.37096804      -1.38178949       1.33564041       0.00000000
Si       0.60623236      -1.52914231      -1.75313745       0.00000000
Si      -0.79721795       2.26507565       0.22438642       0.00000000
Si       0.51960213       1.99264169      -1.68842687       0.00000000
Si       0.47364804      -2.55627569       2.27003437       0.00000000
Si       2.73119771       1.92277388      -0.88596314       0.00000000
H       -2.99775099       0.95003281      -1.47048816       0.00000000
Si       3.58699287      -0.15514596      -0.08813826       0.00000000
Si       2.67871133      -2.23975773      -0.90276805       0.00000000
