10
Lattice="16.290000149 0.0 0.0 0.0 16.290000149 0.0 0.0 0.0 29.1751946751" Properties=species:S:1:pos:R:3:initial_magmoms:R:1 pbc="T T T"
Si      -0.34401222       0.88185916       2.13594518       0.00000000
Si      -1.85487716      -0.93100609      -1.10714029       0.00000000
Si       1.06173334       1.76210561      -1.17789013       0.00000000
Si       1.60117669      -1.77637565      -0.08889682       0.00000000
Si       2.13845348       0.34140582      -2.67909978       0.00000000
Si      -0.67199509      -2.38335734      -2.51787765       0.00000000
Si       1.28251171       2.56484423       2.19881772       0.00000000
Si       2.23060601      -2.17546436       2.05959369       0.00000000
Si       3.43262883      -0.95276953      -1.25263698       0.00000000
Si      -3.15705090      -2.16692840       0.39287317       0.00000000
