10
Lattice="16.290000149 0.0 0.0 0.0 16.290000149 0.0 0.0 0.0 29.1751946751" Properties=species:S:1:pos:R:3:initial_magmoms:R:1 pbc="T T T"
Si      -1.43596351       1.34615511      -1.25940563       0.00000000
Si      -1.37849239      -1.34451145       1.33461928       0.00000000
Si       1.34833960       1.38638653       1.33870381       0.00000000
Si       1.35386191      -1.32892192      -1.40061357       0.00000000
Si      -0.10407681       2.68628618      -2.58892217       0.00000000
Si      -0.00873144      -2.69215058       2.67559875       0.00000000
Si       2.69979059      -2.67335192      -0.03486436       0.00000000
Si       2.70847316       0.03411126       2.69176181       0.00000000
Si      -2.72813519       0.03220533       2.68274668       0.00000000
Si      -0.06890670      -2.78764257      -2.62402284       0.00000000
