10
Lattice="16.290000149 0.0 0.0 0.0 16.290000149 0.0 0.0 0.0 29.1751946751" Properties=species:S:1:pos:R:3:initial_magmoms:R:1 pbc="T T T"
Si       1.32292720       1.33978735       1.39259331       0.00000000
Si      -1.35883525       1.33872850      -1.38043309       0.00000000
Si       1.41594310      -1.38422647      -1.28190262       0.00000000
Si      -1.37272736      -1.36291915       1.35886678       0.00000000
Si       0.02922426      -2.65689902      -2.66299653       0.00000000
Si       2.67662621       2.65671983      -0.00486059       0.00000000
Si       0.12597057       2.53954586      -2.81470316       0.00000000
Si       2.62053974      -2.77933467       0.15975461       0.00000000
Si      -2.86441734      -0.04499298      -2.54913099       0.00000000
Si       2.67693572      -0.02653641       2.74798533       0.00000000
