10
Lattice="16.290000149 0.0 0.0 0.0 16.290000149 0.0 0.0 0.0 29.1751946751" Properties=species:S:1:pos:R:3:initial_magmoms:R:1 pbc="T T T"
Si      -1.67816324       1.67738132       0.25522460       0.00000000
Si       0.35188029      -0.25238097       2.35963139       0.00000000
Si       1.64530631       1.05953419      -1.42739640       0.00000000
Si      -1.06697872      -1.69648949      -1.37666074       0.00000000
H        1.86822193      -1.66975760       0.26030109       0.00000000
H        0.54203346       2.45830763       1.37631063       0.00000000
H       -1.09014310       0.04419477       2.79378747       0.00000000
Si      -2.40657059      -0.27784224      -2.75095828       0.00000000
Si       0.35269479       2.47161656      -2.78923614       0.00000000
Si      -3.53835093       0.84391975      -1.00298484       0.00000000
