10
Lattice="16.290000149 0.0 0.0 0.0 16.290000149 0.0 0.0 0.0 29.1751946751" Properties=species:S:1:pos:R:3:initial_magmoms:R:1 pbc="T T T"
Si       1.35845895       1.35286822      -1.35086986       0.00000000
Si       1.36877052      -1.34050411       1.36017675       0.00000000
Si      -1.33813832       1.36177885       1.37082570       0.00000000
Si      -1.35231192      -1.37516923      -1.34926523       0.00000000
Si      -2.68227559      -0.05554890       2.67233113       0.00000000
Si       2.66701837      -2.69798240      -0.05683328       0.00000000
Si      -0.03335703       2.70215264      -2.67804947       0.00000000
Si      -2.69625241      -0.01707192      -2.71606475       0.00000000
Si       2.67475612      -0.01055592      -2.74039686       0.00000000
Si       2.72665606       0.04036662       2.70932528       0.00000000
