10
Lattice="16.290000149 0.0 0.0 0.0 16.290000149 0.0 0.0 0.0 29.1751946751" Properties=species:S:1:pos:R:3:initial_magmoms:R:1 pbc="T T T"
Si      -0.46900539       2.02453751      -1.07093387       0.00000000
Si       1.27430155      -1.50954544      -1.31944818       0.00000000
Si       1.60741576       0.80945011       1.55089500       0.00000000
Si      -1.86013883      -0.91079020       1.27285539       0.00000000
H       -2.76859956      -0.75118078      -1.28102445       0.00000000
H        1.04964616       1.17587737      -2.77820791       0.00000000
H       -1.06165189       1.91917379      -2.47318125       0.00000000
Si      -2.18207810       2.45827505       0.45813808       0.00000000
Si       2.19462140      -2.53822637       0.53052174       0.00000000
Si       3.30706551      -0.78838714       1.56787496       0.00000000
