10
Lattice="16.290000149 0.0 0.0 0.0 16.290000149 0.0 0.0 0.0 29.1751946751" Properties=species:S:1:pos:R:3:initial_magmoms:R:1 pbc="T T T"
Si      -1.41798587       1.22331385      -1.37966578       0.00000000
Si      -1.30997828      -1.49191966       1.26923767       0.00000000
Si       1.50185656      -1.33258717      -1.25333719       0.00000000
Si       0.66873709       1.87457177       1.29896719       0.00000000
Si       0.04593780       2.60237639      -2.60044345       0.00000000
Si       0.25091487      -2.56663613       2.63828368       0.00000000
Si      -2.76657960       2.52234362       0.04139960       0.00000000
Si       0.06760350      -2.74222605      -2.57065558       0.00000000
Si      -2.70632288      -0.18832869      -2.69774273       0.00000000
Si      -0.99085555       3.52458588       1.19743752       0.00000000
