10
Lattice="16.290000149 0.0 0.0 0.0 16.290000149 0.0 0.0 0.0 29.1751946751" Properties=species:S:1:pos:R:3:initial_magmoms:R:1 pbc="T T T"
Si       1.44169808      -1.35197227       1.28134537       0.00000000
Si      -1.25954281      -1.36650295      -1.45435428       0.00000000
Si       1.37758015       1.32856354      -1.38798071       0.00000000
Si      -1.42972444       1.28194156       1.41181685       0.00000000
Si       0.09756081      -2.76930003       2.58285081       0.00000000
Si      -2.69184107       2.67448734      -0.01753429       0.00000000
Si      -0.03033198       2.69924488       2.66830495       0.00000000
Si      -2.59603958      -2.81502606      -0.19877060       0.00000000
Si      -2.72409527      -0.31159512       2.68513904       0.00000000
Si      -2.64741824      -0.02399517      -2.80043941       0.00000000
