10
Lattice="16.290000149 0.0 0.0 0.0 16.290000149 0.0 0.0 0.0 29.1751946751" Properties=species:S:1:pos:R:3:initial_magmoms:R:1 pbc="T T T"
H        0.91121374      -0.89295265       0.81121629       0.00000000
Si       1.34250778       1.30619737      -1.39527451       0.00000000
Si      -1.14691375       1.43014798       1.46497405       0.00000000
Si      -1.28397781      -1.46616517      -1.31273788       0.00000000
H       -1.11982348      -1.26773668       2.22510457       0.00000000
Si      -2.57899047       2.63857277       0.07792694       0.00000000
Si      -0.50681448      -2.57021179       2.66559166       0.00000000
Si      -2.66390210      -0.13486491      -2.66127373       0.00000000
Si      -0.01451439       2.66185118      -2.69847211       0.00000000
Si       2.72634330       2.65735514      -0.10056690       0.00000000
