10
Lattice="16.290000149 0.0 0.0 0.0 16.290000149 0.0 0.0 0.0 29.1751946751" Properties=species:S:1:pos:R:3:initial_magmoms:R:1 pbc="T T T"
Si      -0.97567327       1.85026709      -0.91528421       0.00000000
Si      -1.74482192      -1.51568677       0.32798754       0.00000000
Si       0.33014943       0.66368719       2.23490744       0.00000000
Si       1.73936477      -0.98839576      -1.29018546       0.00000000
H       -0.33461289      -1.19588149      -2.57549866       0.00000000
Si       2.21946365      -2.28229418       0.63129286       0.00000000
Si       1.77152123      -1.19399185       2.65298798       0.00000000
Si      -2.44999973       0.81775801      -2.38221300       0.00000000
Si      -3.56285109      -0.62581294      -0.82460770       0.00000000
Si      -2.58207905       2.62948295       0.61352517       0.00000000
