10
Lattice="16.290000149 0.0 0.0 0.0 16.290000149 0.0 0.0 0.0 29.1751946751" Properties=species:S:1:pos:R:3:initial_magmoms:R:1 pbc="T T T"
Si       1.34398529       1.36177885       1.35124914       0.00000000
Si      -1.33698547       1.37404522      -1.35361233       0.00000000
Si       1.36493097      -1.35223291      -1.34809822       0.00000000
Si      -1.35233065      -1.34886088       1.37362652       0.00000000
Si      -2.69752628       0.01001835      -2.68324265       0.00000000
Si       2.67424787       0.00363267       2.71504362       0.00000000
Si      -0.00726534      -2.72002277      -2.67236031       0.00000000
Si      -2.68372865       2.72147258       0.01187430       0.00000000
Si       2.69487101      -2.71226873       0.02541159       0.00000000
Si       2.69374700       2.72733698      -0.01114492       0.00000000
