10
Lattice="16.290000149 0.0 0.0 0.0 16.290000149 0.0 0.0 0.0 29.1751946751" Properties=species:S:1:pos:R:3:initial_magmoms:R:1 pbc="T T T"
Si      -0.23483013       0.78737716       2.17113046       0.00000000
Si       1.65959264      -1.65001411       0.10152968       0.00000000
Si      -1.77572405      -1.00224226      -1.15603791       0.00000000
Si       0.92478331       1.73045414      -1.28639268       0.00000000
Si      -2.49520448       1.24971994       2.05305845       0.00000000
Si      -0.42713032      -2.30127203      -2.57710330       0.00000000
Si       2.45330660       0.46890765      -2.49935140       0.00000000
Si       3.48198753      -0.35152191      -0.54344635       0.00000000
Si       1.00690120       2.80401402       2.27435230       0.00000000
Si       2.16681437      -2.07063821       2.31012109       0.00000000
