10
Lattice="16.290000149 0.0 0.0 0.0 16.290000149 0.0 0.0 0.0 29.1751946751" Properties=species:S:1:pos:R:3:initial_magmoms:R:1 pbc="T T T"
Si      -1.18974016      -0.36696483      -0.89862517       0.00000000
H        1.40792842      -2.02940822       0.45119439       0.00000000
Si      -0.32663079       1.11983977      -2.52663021       0.00000000
Si       0.10186137       2.93643543      -1.04616413       0.00000000
Si      -1.96495032      -2.48070638       0.28439980       0.00000000
Si       1.99444988       1.18004761       2.19035692       0.00000000
Si      -1.45155304      -1.56916684       2.37594033       0.00000000
Si       0.60121504      -0.55897507       3.10257773       0.00000000
Si      -0.64813024      -2.75314035      -1.62841349       0.00000000
H        3.11487609       0.64094635      -0.74096242       0.00000000
