10
Lattice="16.290000149 0.0 0.0 0.0 16.290000149 0.0 0.0 0.0 29.1751946751" Properties=species:S:1:pos:R:3:initial_magmoms:R:1 pbc="T T T"
Si      -1.33297813      -1.35368435      -1.38287505       0.00000000
Si       1.33361344      -1.36599959       1.37088405       0.00000000
Si       1.34995231       1.35247563      -1.37266373       0.00000000
Si      -1.36985869       1.34022555       1.36513653       0.00000000
Si       0.00488700       2.72363753       2.67332309       0.00000000
Si      -2.69425199       2.70456194      -0.02710376       0.00000000
Si       2.70537806       0.00552231       2.70019344       0.00000000
Si       2.70251265      -2.70616161      -0.00866503       0.00000000
Si      -2.69138495      -2.71855830      -0.04157465       0.00000000
Si      -2.69311169      -0.00140909      -2.73593306       0.00000000
