10
Lattice="16.290000149 0.0 0.0 0.0 16.290000149 0.0 0.0 0.0 29.1751946751" Properties=species:S:1:pos:R:3:initial_magmoms:R:1 pbc="T T T"
Si      -1.36697536       1.35581671      -1.32936775       0.00000000
Si       1.34975683       1.36078516       1.34768977       0.00000000
Si      -1.37471311      -1.33160977       1.35419584       0.00000000
Si       1.37404522      -1.36502056      -1.33126413       0.00000000
Si       2.66980070      -0.07890876       2.62460051       0.00000000
Si      -0.00079821       2.70158249      -2.67107660       0.00000000
Si       0.00762372      -2.71844264      -2.67848710       0.00000000
Si      -2.68327253       2.71924085       0.06015925       0.00000000
Si      -2.71003700      -0.00475668      -2.69324975       0.00000000
Si       2.73261494      -0.00149868      -2.67489855       0.00000000
