10
Lattice="16.290000149 0.0 0.0 0.0 16.290000149 0.0 0.0 0.0 29.1751946751" Properties=species:S:1:pos:R:3:initial_magmoms:R:1 pbc="T T T"
Si      -1.33026259       1.35814618      -1.36379448       0.00000000
Si       1.31051422       1.42747642       1.32545827       0.00000000
Si      -1.33887348      -1.36923967       1.36265664       0.00000000
Si       1.37860642      -1.34775316      -1.35442924       0.00000000
Si       2.66753639       0.07182261       2.62865587       0.00000000
Si      -2.64910822       2.69609276       0.04218733       0.00000000
Si       2.68263722       2.68167611      -0.10479730       0.00000000
Si      -2.67424787      -0.00363267      -2.71504362       0.00000000
Si      -2.61207334      -0.00215028       2.78153389       0.00000000
Si       0.02062314      -2.71590140      -2.68963202       0.00000000
