10
Lattice="16.290000149 0.0 0.0 0.0 16.290000149 0.0 0.0 0.0 29.1751946751" Properties=species:S:1:pos:R:3:initial_magmoms:R:1 pbc="T T T"
Si      -0.74225386       2.18644219       0.40515593       0.00000000
Si       1.90925318       0.55430309       1.27160086       0.00000000
Si      -1.60793704      -1.49078099       0.93734065       0.00000000
Si       0.72487243       0.33615393      -2.25909367       0.00000000
H        1.39786120      -2.23451724      -1.30812820       0.00000000
H        1.73007947       1.94666968       1.87363100       0.00000000
Si       2.49631220       1.68580162      -1.60950796       0.00000000
Si       1.17385741       3.24356546      -0.48439576       0.00000000
H       -0.56122309      -2.58996504      -2.62048681       0.00000000
Si      -0.38475351      -2.90230951       2.37994258       0.00000000
