10
Lattice="16.290000149 0.0 0.0 0.0 16.290000149 0.0 0.0 0.0 29.1751946751" Properties=species:S:1:pos:R:3:initial_magmoms:R:1 pbc="T T T"
H       -1.19443168      -0.52680231      -1.04353836       0.00000000
Si      -1.54122949       1.26739459       1.19612463       0.00000000
Si       1.13583655      -1.50724855       1.37904347       0.00000000
Si       1.66346640       0.77706559      -1.45642572       0.00000000
Si      -2.48038058      -1.08413209      -1.96702080       0.00000000
Si       3.07615476      -1.17237502      -1.45505448       0.00000000
Si      -0.14649597       2.58970277       2.55893007       0.00000000
Si       2.64141864      -0.12352707       2.54774138       0.00000000
Si       2.76861585       2.48189555      -0.20136719       0.00000000
Si       2.39635513      -2.93555577       0.05085236       0.00000000
