10
Lattice="16.290000149 0.0 0.0 0.0 16.290000149 0.0 0.0 0.0 29.1751946751" Properties=species:S:1:pos:R:3:initial_magmoms:R:1 pbc="T T T"
Si       1.31536864      -1.26428320       1.47076533       0.00000000
Si      -0.86206681      -1.93354157      -1.04051873       0.00000000
Si      -1.43109280       1.37171575       1.28333512       0.00000000
Si       1.21583674       1.43602867      -1.44106206       0.00000000
Si       2.57061089      -2.66512547       0.10484981       0.00000000
Si       2.61057026       2.75833686      -0.07825662       0.00000000
Si      -0.05807385       2.77809663       2.59331303       0.00000000
Si      -0.09487296      -2.67015908       2.72649780       0.00000000
Si       2.75706624       0.16863408      -2.63718669       0.00000000
Si      -1.52163262      -1.50118867      -3.16808771       0.00000000
