10
Lattice="16.290000149 0.0 0.0 0.0 16.290000149 0.0 0.0 0.0 29.1751946751" Properties=species:S:1:pos:R:3:initial_magmoms:R:1 pbc="T T T"
Si       0.64428580       0.82429030      -1.08079509       0.00000000
H       -1.45191142      -0.90427420      -0.53066762       0.00000000
H       -0.64343872      -1.65980441       1.11563027       0.00000000
Si       0.54201717      -2.17175024       1.91526400       0.00000000
Si      -2.24081984       0.96560605       1.65440859       0.00000000
Si       1.90283492       2.28982016       0.22260674       0.00000000
Si       1.88224436      -0.54090945      -2.49302038       0.00000000
Si      -2.53043975       1.84404431      -0.59076852       0.00000000
Si      -0.93941173       1.91679545      -2.39073215       0.00000000
Si      -2.29193786      -1.83690929      -1.34634771       0.00000000
