10
Lattice="16.290000149 0.0 0.0 0.0 16.290000149 0.0 0.0 0.0 29.1751946751" Properties=species:S:1:pos:R:3:initial_magmoms:R:1 pbc="T T T"
Si      -1.34413727      -1.41732775       1.30150543       0.00000000
Si       1.33813832      -1.36177885      -1.37082570       0.00000000
Si      -1.44169808       1.35197227      -1.28134537       0.00000000
Si       1.37874929       1.35769006       1.35775521       0.00000000
Si      -2.58209583      -0.05212800       2.71373073       0.00000000
Si      -0.06411793       2.68053581      -2.66932609       0.00000000
Si      -0.00227928       2.75160583       2.65357148       0.00000000
Si       2.70690884      -2.70228296      -0.01064895       0.00000000
Si       2.69659727      -0.00891063      -2.72169556       0.00000000
Si       2.71493981       2.71231760      -0.01000709       0.00000000
