10
Lattice="16.290000149 0.0 0.0 0.0 16.290000149 0.0 0.0 0.0 29.1751946751" Properties=species:S:1:pos:R:3:initial_magmoms:R:1 pbc="T T T"
Si      -1.37428957       1.35903399      -1.31078315       0.00000000
Si      -1.38658852      -1.36044307       1.30232234       0.00000000
Si       1.32269914      -1.35270532      -1.38354608       0.00000000
Si       1.35744571       1.37096967       1.33692412       0.00000000
Si      -0.00192222      -2.70531290       2.63679574       0.00000000
Si      -0.03021795       2.69149898      -2.65460428       0.00000000
Si       2.67108761       0.04404624      -2.69215859       0.00000000
Si      -2.70255989       0.01102833       2.69076985       0.00000000
Si       2.74168848       0.01220121       2.65762683       0.00000000
Si      -0.00128691       2.72901485       2.67559875       0.00000000
