10
Lattice="16.290000149 0.0 0.0 0.0 16.290000149 0.0 0.0 0.0 29.1751946751" Properties=species:S:1:pos:R:3:initial_magmoms:R:1 pbc="T T T"
Si       2.19108647      -0.39131838       0.82058153       0.00000000
Si       0.05243751       2.29324106       0.67336349       0.00000000
Si       0.15530886      -0.41866929      -2.35983562       0.00000000
Si      -1.51563790      -1.37933459       1.27819445       0.00000000
H       -2.15247917      -0.22467168      -1.45018223       0.00000000
H       -0.85602322       2.45285048      -1.88051635       0.00000000
Si       0.49694274       2.04582854       2.95479428       0.00000000
Si      -0.70048630       1.65925055      -3.15766049       0.00000000
Si       2.12657807       0.30946113       3.04399977       0.00000000
Si       2.45389304      -0.36331587      -2.81003805       0.00000000
