10
Lattice="16.290000149 0.0 0.0 0.0 16.290000149 0.0 0.0 0.0 29.1751946751" Properties=species:S:1:pos:R:3:initial_magmoms:R:1 pbc="T T T"
Si       1.37930689       1.36347301       1.30386863       0.00000000
Si      -1.31802391       1.39178503      -1.33949154       0.00000000
Si       1.32524038      -1.35972631      -1.36633272       0.00000000
Si      -1.36958176      -1.35874891       1.33715752       0.00000000
Si      -2.63251289       0.03282435      -2.68251619       0.00000000
Si      -0.00534312       2.67814118       2.66144878       0.00000000
Si       2.73548198       0.04614957      -2.62206519       0.00000000
Si       2.70915734      -0.00371412       2.67848710       0.00000000
Si      -0.09606213      -2.78774031      -2.60152585       0.00000000
Si      -0.00452862      -2.72401382       2.67063897       0.00000000
