10
Lattice="16.290000149 0.0 0.0 0.0 16.290000149 0.0 0.0 0.0 29.1751946751" Properties=species:S:1:pos:R:3:initial_magmoms:R:1 pbc="T T T"
Si       1.35068536       1.34174215       1.31320469       0.00000000
Si      -1.31121469       1.42589629      -1.29739173       0.00000000
Si       1.43687575      -1.33625242      -1.27959486       0.00000000
Si      -1.37212300      -1.25419969       1.43025557       0.00000000
Si      -2.66313809       0.04202820      -2.62139124       0.00000000
Si       0.06879267      -2.69172704      -2.61047972       0.00000000
Si      -0.01510083      -2.60985350       2.73345316       0.00000000
Si      -2.68263722      -2.68167611       0.10479730       0.00000000
Si      -2.60946254       2.78337459       0.11961830       0.00000000
Si       0.06349842       2.75750607      -2.65158757       0.00000000
