10
Lattice="16.290000149 0.0 0.0 0.0 16.290000149 0.0 0.0 0.0 29.1751946751" Properties=species:S:1:pos:R:3:initial_magmoms:R:1 pbc="T T T"
Si      -1.39713939       1.16967088      -1.46765817       0.00000000
Si      -1.45619064      -1.17799507       1.41993047       0.00000000
Si       1.45892117      -1.28580229      -1.34036679       0.00000000
Si       1.22182185       1.48672315       1.39986960       0.00000000
H       -2.29975201       1.91651852      -0.49466543       0.00000000
Si       2.64844956       0.40718484      -2.52447124       0.00000000
Si      -0.06761474      -2.53964360       2.77477983       0.00000000
Si      -2.85092417      -2.50030325       0.05712503       0.00000000
Si       2.60930469       0.14848335       2.77178937       0.00000000
Si      -0.24608798       2.80842861      -2.65327973       0.00000000
