10
Lattice="16.290000149 0.0 0.0 0.0 16.290000149 0.0 0.0 0.0 29.1751946751" Properties=species:S:1:pos:R:3:initial_magmoms:R:1 pbc="T T T"
Si       1.32229189       1.32651100      -1.36299303       0.00000000
Si      -1.25524225       1.40084227       1.36591551       0.00000000
Si      -1.72750565      -0.93714742      -1.27527314       0.00000000
Si       1.45108374      -1.38479662       1.22529983       0.00000000
Si      -3.43267770       0.73158391      -1.14536855       0.00000000
Si      -2.57061089       2.66512547      -0.10484981       0.00000000
Si      -2.58934439      -2.66769767       0.10576008       0.00000000
Si       2.58281047      -0.10179621      -2.69118414       0.00000000
Si      -2.66548385      -0.00503361       2.62164798       0.00000000
Si       2.81398187       0.00858483       2.54500475       0.00000000
