10
Lattice="16.290000149 0.0 0.0 0.0 16.290000149 0.0 0.0 0.0 29.1751946751" Properties=species:S:1:pos:R:3:initial_magmoms:R:1 pbc="T T T"
Si       0.51855632      -0.66790630       2.23543259       0.00000000
Si      -2.00881766       1.37052658       0.08215735       0.00000000
Si       1.16859085       2.06011487      -0.59173130       0.00000000
Si      -1.22267854      -1.60251247      -1.41342148       0.00000000
Si       2.19305756      -1.41514489      -1.03776167       0.00000000
H       -1.03252537       1.10817613      -2.39674224       0.00000000
H       -2.66470193      -1.30593673      -0.97926541       0.00000000
H       -1.56367711       2.65401569      -0.58589626       0.00000000
Si       0.00223173       2.21457665      -2.60992539       0.00000000
H        3.38279772      -1.04818006      -0.13913650       0.00000000
