10
Lattice="16.290000149 0.0 0.0 0.0 16.290000149 0.0 0.0 0.0 29.1751946751" Properties=species:S:1:pos:R:3:initial_magmoms:R:1 pbc="T T T"
Si       1.34067353      -1.35739684       1.36248159       0.00000000
Si      -1.35365992      -1.35174421      -1.35976830       0.00000000
Si      -1.32673336       1.34928442       1.39404915       0.00000000
Si       1.35727304       1.35332434      -1.36096448       0.00000000
Si      -2.67067385       2.70738173       0.02724963       0.00000000
Si       2.69259693       0.02647125       2.68648110       0.00000000
Si       0.03373496      -2.71363709      -2.68114204       0.00000000
Si      -2.69005895      -2.71068860       0.02001418       0.00000000
Si      -2.69976779       0.02922426      -2.71329310       0.00000000
Si       2.70033468       2.71389773       0.00291752       0.00000000
