10
Lattice="16.290000149 0.0 0.0 0.0 16.290000149 0.0 0.0 0.0 29.1751946751" Properties=species:S:1:pos:R:3:initial_magmoms:R:1 pbc="T T T"
Si      -1.36617715      -1.34576578       1.34170885       0.00000000
Si      -1.38466630       1.34486983      -1.33447340       0.00000000
Si       1.34925184      -1.36567216      -1.35399161       0.00000000
Si       1.36778986       1.36073629       1.35192017       0.00000000
Si       0.00192222       2.70531290      -2.63679574       0.00000000
Si       0.00079821      -2.70158249       2.67107660       0.00000000
Si       2.71171487      -0.00294849      -2.68254245       0.00000000
Si      -2.68247432       0.01765836       2.73123585       0.00000000
Si      -2.70923879      -2.70633917      -0.02217315       0.00000000
Si      -2.70063767       2.71634123       0.05397411       0.00000000
