10
Lattice="16.290000149 0.0 0.0 0.0 16.290000149 0.0 0.0 0.0 29.1751946751" Properties=species:S:1:pos:R:3:initial_magmoms:R:1 pbc="T T T"
Si       1.35374788      -1.39742952      -1.28718041       0.00000000
Si       1.39517335       1.34188876       1.32790899       0.00000000
Si      -1.32248086      -1.38537003       1.36026428       0.00000000
Si      -1.29544760       1.35145099      -1.43188938       0.00000000
Si      -2.64355800       2.67946067      -0.02617015       0.00000000
Si       2.69781950      -0.06496452      -2.63100155       0.00000000
Si       0.03754845       2.69796611       2.68122957       0.00000000
Si      -2.70073541      -0.03619638       2.70045602       0.00000000
Si      -2.63766119      -2.76768732      -0.00396783       0.00000000
Si      -2.65834572      -0.04193046      -2.75159430       0.00000000
