10
Lattice="16.290000149 0.0 0.0 0.0 16.290000149 0.0 0.0 0.0 29.1751946751" Properties=species:S:1:pos:R:3:initial_magmoms:R:1 pbc="T T T"
Si       0.90261262      -0.74684764      -0.97299274       0.00000000
Si      -1.08431128       1.70777846       0.78597712       0.00000000
Si      -1.91076815      -0.28676916       1.89030754       0.00000000
Si      -1.34718301       2.21996864      -1.51708095       0.00000000
Si       2.29975201      -1.91651852       0.49466543       0.00000000
Si      -0.68760091      -1.88690330      -2.30720357       0.00000000
Si       2.05366403       0.89191009      -2.15861430       0.00000000
Si       0.85856446       2.55793727       1.85404278       0.00000000
Si      -0.48581667      -1.65413549       3.22704494       0.00000000
Si      -3.21874113      -1.73793125       0.52737082       0.00000000
