10
Lattice="16.290000149 0.0 0.0 0.0 16.290000149 0.0 0.0 0.0 29.1751946751" Properties=species:S:1:pos:R:3:initial_magmoms:R:1 pbc="T T T"
Si      -1.24654339       1.34564687       1.48626757       0.00000000
Si       1.35876520      -1.38311631       1.40268501       0.00000000
Si      -1.44239806      -1.44046444      -1.27985744       0.00000000
Si       1.51563790       1.37933459      -1.27819445       0.00000000
H       -0.63684127       1.15466290      -2.72837668       0.00000000
Si      -0.01659951      -2.62012109      -2.73756687       0.00000000
Si      -2.58130202      -0.06215775       2.83692591       0.00000000
Si      -2.87966641       2.52924570       0.27194199       0.00000000
Si       3.70672437       0.98801620      -0.45761293       0.00000000
Si       0.14017545       2.61831942       2.86736147       0.00000000
