10
Lattice="16.290000149 0.0 0.0 0.0 16.290000149 0.0 0.0 0.0 29.1751946751" Properties=species:S:1:pos:R:3:initial_magmoms:R:1 pbc="T T T"
Si      -1.34795842       1.36006514      -1.35410831       0.00000000
Si       1.35845569       1.36153124       1.34952780       0.00000000
Si      -1.37365263      -1.34939845       1.35008213       0.00000000
Si       1.31597137      -1.37147140      -1.38844751       0.00000000
Si       0.01816335      -2.69868287       2.67726174       0.00000000
Si      -2.66313875      -0.02225214      -2.71834041       0.00000000
Si       2.70255989      -0.01102833      -2.69076985       0.00000000
Si      -0.02407662       2.71699283       2.68385533       0.00000000
Si      -2.68966071      -2.71386515      -0.04399619       0.00000000
Si       2.70063767      -2.71634123      -0.05397411       0.00000000
