10
Lattice="10.86 0.0 0.0 0.0 10.86 0.0 0.0 0.0 10.86" Properties=species:S:1:pos:R:3:initial_magmoms:R:1 pbc="T T T"
Si       1.06309626       1.04529672       1.56160284       0.00000000
Si      -1.44765972       1.22858094      -1.10907750       0.00000000
Si       1.26734028      -1.48641906      -1.10907750       0.00000000
Si      -1.44765972      -1.48641906       1.60592250       0.00000000
Si       0.00678750       2.66757438      -2.52635094       0.00000000
Si       2.69746110      -0.10003146      -2.55231720       0.00000000
Si      -2.80515972      -0.12891906      -2.46657750       0.00000000
Si      -0.09015972      -2.84391906      -2.46657750       0.00000000
Si      -2.80515972       2.58608094       0.24842250       0.00000000
Si       0.08896512       2.39610696       3.01423644       0.00000000
