10
Lattice="10.86 0.0 0.0 0.0 10.86 0.0 0.0 0.0 10.86" Properties=species:S:1:pos:R:3:initial_magmoms:R:1 pbc="T T T"
Si       1.39580322      -1.27552872      -1.22610486       0.00000000
Si      -1.31919678      -1.27552872       1.48889514       0.00000000
Si       1.39580322       1.43947128       1.48889514       0.00000000
Si      -2.44448826       0.11842830      -2.56476276       0.00000000
Si       0.14894490       2.81108928      -2.31023694       0.00000000
Si       0.03830322      -2.63302872      -2.58360486       0.00000000
Si      -2.67669678      -2.63302872       0.13139514       0.00000000
Si       2.75330322       0.08197128      -2.58360486       0.00000000
Si       2.75330322      -2.63302872       0.13139514       0.00000000
Si       0.03830322      -2.63302872       2.84639514       0.00000000
