10
Lattice="10.86 0.0 0.0 0.0 10.86 0.0 0.0 0.0 10.86" Properties=species:S:1:pos:R:3:initial_magmoms:R:1 pbc="T T T"
Si      -1.29696636       1.41450414      -1.20714330       0.00000000
Si       1.41803364      -1.30049586      -1.20714330       0.00000000
Si      -1.17125100      -1.33010022       1.42647186       0.00000000
Si       1.41803364       1.41450414       1.50785670       0.00000000
Si      -2.54345544      -2.62582854       0.15110604       0.00000000
Si      -2.65446636       0.05700414      -2.56464330       0.00000000
Si       0.06053364      -2.65799586      -2.56464330       0.00000000
Si       0.06053364       2.77200414      -2.56464330       0.00000000
Si       2.77553364       0.05700414      -2.56464330       0.00000000
Si      -2.65446636       2.77200414       0.15035670       0.00000000
