10
Lattice="16.290000149 0.0 0.0 0.0 16.290000149 0.0 0.0 0.0 29.1751946751" Properties=species:S:1:pos:R:3:initial_magmoms:R:1 pbc="T T T"
Si       1.08336646      -1.42032511      -1.49730017       0.00000000
Si      -1.54509022       1.32379057      -1.18503806       0.00000000
Si      -1.05554314      -1.76213819       1.18255817       0.00000000
Si       2.12631743       0.97111207       0.67914018       0.00000000
Si       0.21712941       0.80726725       3.38750268       0.00000000
Si       2.37763955      -2.71494029      -0.07039974       0.00000000
Si      -0.20199600       2.70117524      -2.49911800       0.00000000
Si       2.49856022      -0.09347202      -2.73564130       0.00000000
Si      -1.39864312      -0.88306462       3.31949530       0.00000000
Si       0.54527518      -3.53942607       1.09310702       0.00000000
