10
Lattice="16.290000149 0.0 0.0 0.0 16.290000149 0.0 0.0 0.0 29.1751946751" Properties=species:S:1:pos:R:3:initial_magmoms:R:1 pbc="T T T"
Si      -1.35659863      -1.31458672       1.39846919       0.00000000
Si       1.34263810       1.36964692       1.36305051       0.00000000
Si      -1.37272573       1.35195598      -1.36099949       0.00000000
Si       1.42855156      -1.37450134      -1.29282290       0.00000000
Si      -2.67647960      -2.65592162       0.00468262       0.00000000
Si      -2.54444915      -0.11575674      -2.81037357       0.00000000
Si       2.68727987      -0.00676035      -2.71952201       0.00000000
Si       2.71036280       2.71888247       0.01256284       0.00000000
Si      -0.00514764      -2.68273496       2.75429884       0.00000000
Si       2.80249905      -2.63966420       0.12475605       0.00000000
