10
Lattice="16.290000149 0.0 0.0 0.0 16.290000149 0.0 0.0 0.0 29.1751946751" Properties=species:S:1:pos:R:3:initial_magmoms:R:1 pbc="T T T"
H       -0.89388118       1.54437346      -1.50911612       0.00000000
Si      -2.32173227      -0.05916528       0.34505503       0.00000000
Si       0.98047882      -0.40943449      -2.15318772       0.00000000
Si       1.04055634       2.14334048       0.39797883       0.00000000
Si       0.06507855      -2.07044273       1.28049929       0.00000000
H       -3.00341991       1.20200653      -0.13855300       0.00000000
Si       2.86371687       1.25167474       1.53668668       0.00000000
Si       2.90067888      -1.47265674      -1.38074526       0.00000000
Si       3.53839980      -0.79987485       0.76660742       0.00000000
Si      -3.12768003      -1.76596634      -1.03364797       0.00000000
