10
Lattice="16.290000149 0.0 0.0 0.0 16.290000149 0.0 0.0 0.0 29.1751946751" Properties=species:S:1:pos:R:3:initial_magmoms:R:1 pbc="T T T"
Si      -1.25872831      -1.36774099       1.42669911       0.00000000
Si      -1.45106434       1.41938029      -1.21552614       0.00000000
Si       0.95913892      -1.27179289      -1.75296240       0.00000000
Si       1.38766366       1.37831320       1.34244115       0.00000000
Si       2.35234118       0.16329096      -2.92913119       0.00000000
Si      -2.68727987       0.00676035       2.71952201       0.00000000
Si      -2.06754311      -3.22902012       0.24917163       0.00000000
Si       2.73595440       0.01575243       2.71842794       0.00000000
Si       0.02308293       2.72564282       2.73208485       0.00000000
Si      -0.18772596       2.90222643      -2.54337677       0.00000000
