10
Lattice="16.290000149 0.0 0.0 0.0 16.290000149 0.0 0.0 0.0 29.1751946751" Properties=species:S:1:pos:R:3:initial_magmoms:R:1 pbc="T T T"
Si      -1.86976622      -0.82891666      -1.25161585       0.00000000
Si       1.68904496      -1.68459779      -0.25432017       0.00000000
Si      -0.63218233       0.33936957       2.33188578       0.00000000
Si       0.68543434       1.86790916      -1.41698085       0.00000000
H        2.20284785       0.80426989       1.13368971       0.00000000
H       -1.07207749       2.50807358       0.11284965       0.00000000
H       -2.61974153      -0.27533358       1.25065307       0.00000000
H        0.60971842      -1.60371793       2.55641808       0.00000000
H       -0.50117814       2.37913823      -2.21565181       0.00000000
H       -3.26883288       0.14983542       1.20744461       0.00000000
