10
Lattice="16.290000149 0.0 0.0 0.0 16.290000149 0.0 0.0 0.0 29.1751946751" Properties=species:S:1:pos:R:3:initial_magmoms:R:1 pbc="T T T"
Si       1.41887693       1.43342227       1.17406818       0.00000000
Si       1.42629377      -1.23543361      -1.38375031       0.00000000
Si      -1.29337714       1.41206608      -1.35597552       0.00000000
Si      -1.62101791      -1.07375536       1.42935114       0.00000000
H        0.43649544      -2.40199310       1.74067964       0.00000000
H       -1.10721502       1.41511231       2.81736102       0.00000000
Si      -0.06584418       2.51258591       2.59962655       0.00000000
Si      -2.62462853       2.47875158       0.26669045       0.00000000
Si      -3.31006287       0.61084243       1.68367131       0.00000000
Si       2.87440311      -2.43634871      -0.00898596       0.00000000
