10
Lattice="16.290000149 0.0 0.0 0.0 16.290000149 0.0 0.0 0.0 29.1751946751" Properties=species:S:1:pos:R:3:initial_magmoms:R:1 pbc="T T T"
Si      -1.30429144       1.38293956      -1.37158425       0.00000000
Si       1.38321323       1.36231642       1.32633353       0.00000000
Si       1.39898847      -1.33769897      -1.34372194       0.00000000
Si      -1.38666997      -1.33937847       1.37467682       0.00000000
Si       0.07996761      -2.65096979       2.63259452       0.00000000
Si      -2.67677282      -0.00223173      -2.67939153       0.00000000
Si       0.02831202      -2.70958088      -2.67256453       0.00000000
Si      -2.63151920       2.75592594      -0.00361772       0.00000000
Si      -2.66230730       0.08410527       2.75396333       0.00000000
Si       2.73580779       0.03200985       2.70083530       0.00000000
