10
Lattice="16.290000149 0.0 0.0 0.0 16.290000149 0.0 0.0 0.0 29.1751946751" Properties=species:S:1:pos:R:3:initial_magmoms:R:1 pbc="T T T"
Si       0.64839088      -0.42549480       2.13264255       0.00000000
Si      -1.07276167      -1.76096531      -1.05958472       0.00000000
Si      -1.70526980       1.59444892      -0.01511275       0.00000000
Si       1.78650803       0.58178107      -1.44673955       0.00000000
Si      -0.31206753       3.02953278      -1.19128155       0.00000000
H        3.07507962       1.14735358      -0.52941308       0.00000000
H       -0.56293354      -3.04438926       1.33762433       0.00000000
Si      -2.00112878      -0.72259183      -2.89663003       0.00000000
Si       0.75359170       1.91790317      -3.05934009       0.00000000
Si      -1.25929846      -1.21505482       3.25590213       0.00000000
