10
Lattice="16.290000149 0.0 0.0 0.0 16.290000149 0.0 0.0 0.0 29.1751946751" Properties=species:S:1:pos:R:3:initial_magmoms:R:1 pbc="T T T"
Si      -1.43299873       1.31981581      -1.28195805       0.00000000
Si      -1.38148975      -1.31624830       1.36332767       0.00000000
Si       1.33455826       1.40494735       1.33747845       0.00000000
Si       1.34757397      -1.27868356      -1.45969334       0.00000000
Si      -0.07609059       2.65948913      -2.59636476       0.00000000
Si       2.68615586      -2.61562016      -0.03836538       0.00000000
Si      -0.02643867      -2.68710068       2.70103952       0.00000000
Si      -2.75366163      -2.64355751       0.00002918       0.00000000
Si       2.69680952       0.06532290       2.70077695       0.00000000
Si      -2.75103894       0.06123411       2.68718131       0.00000000
