10
Lattice="16.290000149 0.0 0.0 0.0 16.290000149 0.0 0.0 0.0 29.1751946751" Properties=species:S:1:pos:R:3:initial_magmoms:R:1 pbc="T T T"
Si      -2.18768186       0.73259389       0.46881620       0.00000000
Si      -0.25961373      -2.02569410       1.19898380       0.00000000
Si       1.56353050       1.29508759       1.22197385       0.00000000
Si      -0.27849384       0.89643871      -2.23954629       0.00000000
H        2.25650711      -0.94568338      -1.62984308       0.00000000
H        0.81827929      -1.85658761      -2.17857014       0.00000000
H        1.62658909      -2.60920190      -0.52602876       0.00000000
H        1.05568975      -2.48026655       1.80247270       0.00000000
Si      -2.14480658       2.87915164      -0.51039086       0.00000000
Si      -2.40481127      -0.07467336      -2.91868648       0.00000000
