10
Lattice="16.290000149 0.0 0.0 0.0 16.290000149 0.0 0.0 0.0 29.1751946751" Properties=species:S:1:pos:R:3:initial_magmoms:R:1 pbc="T T T"
Si       1.35505597      -1.40996467       1.31352561       0.00000000
Si      -1.46202246       1.27762471       1.34532658       0.00000000
Si      -1.10882284      -1.70670332      -1.24548906       0.00000000
Si       1.18985908       1.69189571      -1.19212763       0.00000000
Si       2.36790302      -2.64927530      -0.52573701       0.00000000
Si      -2.77968816      -2.49256550       0.19737019       0.00000000
Si       2.52677939       0.05774805       2.76289969       0.00000000
Si      -2.86490115       2.44667657      -0.11497944       0.00000000
Si      -0.13414978      -2.61024446       2.74682124       0.00000000
Si       0.30744606      -3.65423799      -1.23839949       0.00000000
