10
Lattice="16.290000149 0.0 0.0 0.0 16.290000149 0.0 0.0 0.0 29.1751946751" Properties=species:S:1:pos:R:3:initial_magmoms:R:1 pbc="T T T"
Si       1.34309422       1.37738467      -1.31407994       0.00000000
Si       1.54509022      -1.32379057       1.18503806       0.00000000
Si      -1.36210465       1.37090125       1.34570585       0.00000000
Si      -1.40985064      -1.32589198      -1.35475016       0.00000000
Si       2.56839545       2.81214761       0.11302470       0.00000000
Si       2.62845668      -2.74411569      -0.31226211       0.00000000
Si       2.64881918       0.03256371      -2.74523994       0.00000000
Si      -0.05453892       2.71833839      -2.67723256       0.00000000
Si      -2.70291827       0.07327242       2.71626897       0.00000000
Si      -2.78598099      -2.64601730       0.00965699       0.00000000
