10
Lattice="16.290000149 0.0 0.0 0.0 16.290000149 0.0 0.0 0.0 29.1751946751" Properties=species:S:1:pos:R:3:initial_magmoms:R:1 pbc="T T T"
Si       1.36754877      -1.41091764       1.22124447       0.00000000
Si      -1.26727730      -1.33619573      -1.42091951       0.00000000
Si       1.38856287       1.34678391      -1.35267873       0.00000000
Si      -1.44679311       1.17590181       1.50115129       0.00000000
H        1.49180889       1.55705523       2.11633945       0.00000000
Si       2.17349653       0.29588342       2.59994747       0.00000000
Si      -2.56814785      -2.66032807      -0.03022550       0.00000000
Si      -2.58521977       2.68230328       0.05861297       0.00000000
Si       0.03596832       2.67709048      -2.72718050       0.00000000
Si      -2.73391489      -0.02460442      -2.67883720       0.00000000
