10
Lattice="16.290000149 0.0 0.0 0.0 16.290000149 0.0 0.0 0.0 29.1751946751" Properties=species:S:1:pos:R:3:initial_magmoms:R:1 pbc="T T T"
Si      -2.24380091       0.51000732      -0.27979012       0.00000000
Si       0.92907247      -0.81099766      -1.99832578       0.00000000
Si       0.28227068      -1.82643531       1.56769991       0.00000000
Si       1.33183457       1.97840423       0.48760503       0.00000000
Si       2.96481261       0.79374655       1.69860084       0.00000000
Si       1.62740685      -0.61227920       3.05018200       0.00000000
Si       2.76830634      -1.98865064      -1.06658677       0.00000000
Si      -0.94501549      -1.72513056      -3.10861699       0.00000000
Si      -2.97797493       1.13963212       1.90115021       0.00000000
H       -2.01399788      -0.63435215      -3.06578781       0.00000000
