10
Lattice="16.290000149 0.0 0.0 0.0 16.290000149 0.0 0.0 0.0 29.1751946751" Properties=species:S:1:pos:R:3:initial_magmoms:R:1 pbc="T T T"
H        1.28857159       0.56557252       0.91732647       0.00000000
Si       1.23388606      -1.85042999      -0.66933732       0.00000000
Si      -1.03291633       1.33612210      -1.61260054       0.00000000
Si      -1.78650803      -0.58178107       1.44673955       0.00000000
H        0.97451668       1.26149761      -2.67101825       0.00000000
Si      -2.09857556       2.44775171       0.25545800       0.00000000
Si      -1.79535350      -0.70905484      -2.62322928       0.00000000
Si       2.47261025       1.09286353       1.97758222       0.00000000
Si      -0.30584475      -2.57908169      -2.27009272       0.00000000
Si      -2.85926970      -2.34274637       0.38715483       0.00000000
