10
Lattice="16.290000149 0.0 0.0 0.0 16.290000149 0.0 0.0 0.0 29.1751946751" Properties=species:S:1:pos:R:3:initial_magmoms:R:1 pbc="T T T"
Si       1.44560719      -1.19278639      -1.35757403       0.00000000
Si      -1.34547419      -1.46142478       1.23451364       0.00000000
Si      -1.35682506       1.24173784      -1.45744072       0.00000000
Si       1.42594516       1.35783667       1.28132233       0.00000000
Si      -2.70650207      -0.00449604       2.52197414       0.00000000
Si       0.08723295      -2.53864991      -2.69913701       0.00000000
Si      -2.52775435       2.83204862      -0.16941423       0.00000000
Si       0.09532908       2.67230936       2.69996033       0.00000000
Si       2.75387340      -0.03789054       2.65053464       0.00000000
Si       2.72363915      -2.68820840      -0.01796813       0.00000000
