10
Lattice="16.290000149 0.0 0.0 0.0 16.290000149 0.0 0.0 0.0 29.1751946751" Properties=species:S:1:pos:R:3:initial_magmoms:R:1 pbc="T T T"
Si       1.37604889       1.34115571       1.33234362       0.00000000
Si       1.37767789      -1.36420606      -1.31483850       0.00000000
Si      -1.35641944      -1.35016408       1.36043933       0.00000000
Si      -1.35005005       1.37684710      -1.34159215       0.00000000
Si      -0.05809014       2.66141135       2.61651898       0.00000000
Si       0.00112401      -2.70122411      -2.65893972       0.00000000
Si      -2.71360451       0.02125845      -2.68957367       0.00000000
Si       2.73572633      -0.00962739      -2.67136835       0.00000000
Si       0.00410508      -2.67718007       2.74063026       0.00000000
Si       0.01112607       2.73870741      -2.68522657       0.00000000
