10
Lattice="16.290000149 0.0 0.0 0.0 16.290000149 0.0 0.0 0.0 29.1751946751" Properties=species:S:1:pos:R:3:initial_magmoms:R:1 pbc="T T T"
Si      -1.33061608       1.31447269       1.41863801       0.00000000
Si      -1.42594516      -1.35783667      -1.28132233       0.00000000
Si       1.32792823      -1.39572721       1.36921231       0.00000000
Si       1.33612210       1.36407851      -1.40749892       0.00000000
Si       0.01966203      -2.55062306      -2.63889636       0.00000000
Si       2.63241515       2.64853900       0.09912856       0.00000000
Si      -2.60856334       2.68836805       0.03174553       0.00000000
Si      -2.74264144      -0.07550415       2.67542370       0.00000000
Si       2.66429468      -0.07091037       2.77377328       0.00000000
Si       2.71036280      -2.75107152       0.04487145       0.00000000
