10
Lattice="16.290000149 0.0 0.0 0.0 16.290000149 0.0 0.0 0.0 29.1751946751" Properties=species:S:1:pos:R:3:initial_magmoms:R:1 pbc="T T T"
Si       1.24735789      -1.37239993       1.41220196       0.00000000
Si      -1.28989108       1.44839278       1.32622558       0.00000000
Si       1.90768934       0.78956002      -1.12325958       0.00000000
Si      -1.83915731      -0.88257592      -1.18261068       0.00000000
H        0.69636493      -1.82933444      -1.91827780       0.00000000
Si       1.25929846       1.21505482      -3.25590213       0.00000000
Si       2.66618432       0.05753628       2.64679408       0.00000000
Si      -2.71841006       0.05706387       2.60589046       0.00000000
Si       2.74624968      -2.60684963       0.13202651       0.00000000
Si      -3.47265336       0.85227652      -1.26888086       0.00000000
