10
Lattice="16.290000149 0.0 0.0 0.0 16.290000149 0.0 0.0 0.0 29.1751946751" Properties=species:S:1:pos:R:3:initial_magmoms:R:1 pbc="T T T"
Si       1.01158620      -1.09331965      -0.23675670       0.00000000
H       -0.46374861      -1.86572630      -0.46560693       0.00000000
Si      -2.05751336       1.32823774      -0.31132850       0.00000000
Si      -1.70486743       1.10411992       2.04591053       0.00000000
Si      -0.43649544       2.40199310      -1.74067964       0.00000000
Si       2.43790767      -0.03435561      -1.74966560       0.00000000
Si       2.27738600      -1.09620298       1.75299157       0.00000000
H       -1.35435550      -2.09886878       1.87654852       0.00000000
Si       1.71551132       1.29526678       2.46883415       0.00000000
Si      -1.25604535      -1.02806191       2.93403263       0.00000000
