10
Lattice="16.290000149 0.0 0.0 0.0 16.290000149 0.0 0.0 0.0 29.1751946751" Properties=species:S:1:pos:R:3:initial_magmoms:R:1 pbc="T T T"
Si       1.38859708      -1.34873056       1.33056393       0.00000000
Si       1.37592346       1.34837218      -1.34967368       0.00000000
Si      -1.31357181      -1.36474363      -1.39533286       0.00000000
Si      -1.37089637       1.33889140       1.37890723       0.00000000
Si      -2.66270967      -2.71741637      -0.03897806       0.00000000
Si       0.02972599      -2.70423776       2.67895390       0.00000000
Si      -2.70278307       2.70669918       0.00837328       0.00000000
Si       0.03074086       2.71030905      -2.70451137       0.00000000
Si      -2.68165494      -0.00755856      -2.73514533       0.00000000
Si      -0.00021991       2.71077331       2.70774982       0.00000000
