10
Lattice="16.290000149 0.0 0.0 0.0 16.290000149 0.0 0.0 0.0 29.1751946751" Properties=species:S:1:pos:R:3:initial_magmoms:R:1 pbc="T T T"
H        0.71690662       0.07622091       1.32642105       0.00000000
H       -1.39209454       0.84580939       1.62558350       0.00000000
Si       1.60718770      -0.79298092      -1.52382042       0.00000000
Si      -1.87452290      -1.45974691      -0.14669288       0.00000000
Si      -0.35246673       1.94934287      -1.37091322       0.00000000
H        1.86118139       1.71460397       0.19710762       0.00000000
H        2.51027273       1.28943496       0.24031608       0.00000000
Si      -0.79720003       0.92825308       3.03045665       0.00000000
Si       0.11446983      -1.80444332      -2.98934880       0.00000000
Si      -1.00268209      -3.24174261      -1.43162680       0.00000000
