10
Lattice="16.290000149 0.0 0.0 0.0 16.290000149 0.0 0.0 0.0 29.1751946751" Properties=species:S:1:pos:R:3:initial_magmoms:R:1 pbc="T T T"
Si      -1.30945537       1.42392520       1.30019022       0.00000000
Si       1.26333838       1.48284613      -1.32785064       0.00000000
Si       1.45106434      -1.41938029       1.21552614       0.00000000
Si      -1.37673307      -1.02724741      -1.63223544       0.00000000
Si       0.33956505      -1.47514096      -3.15570576       0.00000000
Si      -0.42671655       2.41093631      -2.64035512       0.00000000
Si       2.23612832       0.02482596      -2.83565387       0.00000000
Si      -2.22469274       0.81531451      -2.75944826       0.00000000
Si       2.41020326      -2.69117318      -0.53743626       0.00000000
Si      -2.60894126      -0.06066396       2.57404865       0.00000000
