10
Lattice="16.290000149 0.0 0.0 0.0 16.290000149 0.0 0.0 0.0 29.1751946751" Properties=species:S:1:pos:R:3:initial_magmoms:R:1 pbc="T T T"
Si      -1.18050373      -1.09714047      -1.70590281       0.00000000
Si       0.62393959      -1.68440231       1.54403883       0.00000000
Si      -1.94061143       0.97362073       0.98200788       0.00000000
Si       1.28963044       1.36790389      -1.50050944       0.00000000
H        1.39771459       2.61834059      -0.33609824       0.00000000
H        0.50710770       2.38519811       2.00605721       0.00000000
Si      -2.44933184      -2.50967000      -0.39514884       0.00000000
Si      -2.65513970       2.30467664      -0.80748186       0.00000000
Si      -3.46520883      -0.86531829       0.90901154       0.00000000
Si      -2.57116475       0.57528136      -2.62241237       0.00000000
