10
Lattice="16.290000149 0.0 0.0 0.0 16.290000149 0.0 0.0 0.0 29.1751946751" Properties=species:S:1:pos:R:3:initial_magmoms:R:1 pbc="T T T"
Si       1.42544017      -1.25416711      -1.37348064       0.00000000
Si      -1.35731539       1.42208443      -1.36224819       0.00000000
Si      -1.38090331      -1.82379584       0.76208526       0.00000000
Si       1.07818624       1.68383216       1.38774731       0.00000000
H        2.67195098      -1.51013188       1.23346888       0.00000000
Si      -2.48062493       2.53951328       0.39045163       0.00000000
H        3.13569960       0.35559441       1.69907581       0.00000000
Si       0.00110772      -2.53759106      -2.73164430       0.00000000
Si       2.56386683      -2.76056859       0.06905769       0.00000000
Si      -0.61085872       3.36842994       1.64206748       0.00000000
