10
Lattice="16.290000149 0.0 0.0 0.0 16.290000149 0.0 0.0 0.0 29.1751946751" Properties=species:S:1:pos:R:3:initial_magmoms:R:1 pbc="T T T"
Si      -0.84545101      -0.93302605      -0.81051608       0.00000000
H        1.43822782       0.91090423       0.54872706       0.00000000
H        0.80830981      -0.75261430       1.65254138       0.00000000
Si       2.08492454       1.73415197      -0.53066762       0.00000000
Si      -1.09677313       2.75302632      -0.06097616       0.00000000
Si      -0.81827929       1.85658761       2.17857014       0.00000000
Si      -2.13972410       0.36158913      -2.23741650       0.00000000
Si       0.58318201      -2.37643409      -1.93396530       0.00000000
Si      -2.67781538      -1.75751183       0.35299068       0.00000000
Si       1.99492229      -1.26384337       2.45121233       0.00000000
