10
Lattice="16.290000149 0.0 0.0 0.0 16.290000149 0.0 0.0 0.0 29.1751946751" Properties=species:S:1:pos:R:3:initial_magmoms:R:1 pbc="T T T"
Si       1.26882811       1.41252953      -1.31075397       0.00000000
Si      -1.01587699       1.64435171       1.30416038       0.00000000
Si       1.53748279      -0.99714349       1.49855470       0.00000000
Si      -1.56353050      -1.29508759      -1.22197385       0.00000000
Si       2.44933184       2.50967000       0.39514884       0.00000000
Si      -1.52801830       0.38869569       3.23523734       0.00000000
H        0.69297661      -2.24077097      -2.85181693       0.00000000
Si       2.61760754       0.04134402      -2.63673739       0.00000000
Si       3.07327143       0.82526770       1.93918766       0.00000000
Si       0.40254219      -1.10467378       3.56103674       0.00000000
