10
Lattice="16.290000149 0.0 0.0 0.0 16.290000149 0.0 0.0 0.0 29.1751946751" Properties=species:S:1:pos:R:3:initial_magmoms:R:1 pbc="T T T"
Si      -1.33441963      -1.37774305      -1.34404287       0.00000000
Si       1.34177473      -1.35852085       1.36344437       0.00000000
Si       1.33188670       1.35749458      -1.38267083       0.00000000
Si      -1.38917863       1.36019872       1.32242405       0.00000000
Si      -2.66274713       0.03248226      -2.65444674       0.00000000
Si      -0.03747677       2.71282259       2.68251327       0.00000000
Si       2.68902290       0.00417024       2.71323475       0.00000000
Si       2.69133608       2.71202438      -0.02914602       0.00000000
Si       2.70018155      -2.71327871       0.00811070       0.00000000
Si      -2.72000648      -2.70866864       0.02404036       0.00000000
