10
Lattice="16.290000149 0.0 0.0 0.0 16.290000149 0.0 0.0 0.0 29.1751946751" Properties=species:S:1:pos:R:3:initial_magmoms:R:1 pbc="T T T"
Si       1.35170186       1.35262387       1.36008923       0.00000000
Si       1.38917863      -1.36019872      -1.32242405       0.00000000
Si      -1.33933123      -1.35571897       1.38106619       0.00000000
Si      -1.34434855       1.38171781      -1.35381656       0.00000000
Si      -2.68943015       2.71251308       0.03168426       0.00000000
Si       0.05475900      -2.73794177      -2.66646692       0.00000000
Si      -2.70008381       0.03157002      -2.70745807       0.00000000
Si       2.69000030      -0.00500103       2.72400040       0.00000000
Si       2.71135649       2.70503597      -0.00020423       0.00000000
Si      -2.69749370      -2.72204273       0.05099824       0.00000000
