10
Lattice="16.290000149 0.0 0.0 0.0 16.290000149 0.0 0.0 0.0 29.1751946751" Properties=species:S:1:pos:R:3:initial_magmoms:R:1 pbc="T T T"
Si      -1.35944938      -1.35452980      -1.35352481       0.00000000
Si       1.34747623      -1.36085032       1.36531159       0.00000000
Si      -1.36915822       1.35321031       1.35136584       0.00000000
Si       1.35571897       1.34369695      -1.37514363       0.00000000
Si       2.68946273       2.69496875       0.01943068       0.00000000
Si       0.01972719      -2.71324613      -2.68945697       0.00000000
Si      -2.69133608      -2.71202438       0.02914602       0.00000000
Si       2.71103069      -0.00526167       2.71329310       0.00000000
Si      -0.02019960       2.69094512      -2.73438677       0.00000000
Si      -2.71954711       2.71233389      -0.00840246       0.00000000
