10
Lattice="16.290000149 0.0 0.0 0.0 16.290000149 0.0 0.0 0.0 29.1751946751" Properties=species:S:1:pos:R:3:initial_magmoms:R:1 pbc="T T T"
Si       1.29979540       1.24059754      -1.50007181       0.00000000
Si       1.44619363      -1.35125551       1.28770557       0.00000000
Si      -1.50413716       1.33561711       1.24761885       0.00000000
Si      -1.43433451      -1.40180338      -1.32782146       0.00000000
Si       2.50563008      -2.81494461      -0.19276051       0.00000000
Si      -2.81616473      -0.15592788       2.51936559       0.00000000
Si      -0.11875410       2.61293231      -2.75472188       0.00000000
Si       0.13432734      -2.71256195       2.67131000       0.00000000
Si       2.48194442      -0.20854458      -2.91492288       0.00000000
Si       3.15677397       2.17302086      -0.39678265       0.00000000
