10
Lattice="16.290000149 0.0 0.0 0.0 16.290000149 0.0 0.0 0.0 29.1751946751" Properties=species:S:1:pos:R:3:initial_magmoms:R:1 pbc="T T T"
Si      -1.34724817      -1.36269109      -1.34979038       0.00000000
Si       1.34278471      -1.38342826       1.34208813       0.00000000
Si      -1.38820123       1.35102745       1.33318970       0.00000000
Si       1.34978941       1.34700382      -1.37706919       0.00000000
Si       2.70697448      -0.02441871       2.67294381       0.00000000
Si      -0.03890052       2.73626390       2.65864797       0.00000000
Si      -2.68902290      -0.00417024      -2.71323475       0.00000000
Si       2.71334387       2.70259247      -0.02908767       0.00000000
Si       0.01115865      -2.71744895      -2.70512405       0.00000000
Si      -0.02985957      -2.72173322       2.70302344       0.00000000
