10
Lattice="16.290000149 0.0 0.0 0.0 16.290000149 0.0 0.0 0.0 29.1751946751" Properties=species:S:1:pos:R:3:initial_magmoms:R:1 pbc="T T T"
Si       0.92836711      -1.03837348       1.83704531       0.00000000
Si      -0.76043350      -2.05094360      -0.87586852       0.00000000
Si      -1.29841075       1.50148189       1.32151962       0.00000000
Si       1.99228331       0.59531806      -1.17333880       0.00000000
H       -0.26067258       2.68104080      -1.44078781       0.00000000
Si      -0.15710076      -1.52858845      -3.06012782       0.00000000
Si       2.26426115      -2.58558140       0.68520862       0.00000000
Si      -1.00792747      -2.06907437       2.74246830       0.00000000
Si       2.00112878       0.72259183       2.89663003       0.00000000
Si       0.29585898       2.31704075       2.88151728       0.00000000
