10
Lattice="16.290000149 0.0 0.0 0.0 16.290000149 0.0 0.0 0.0 29.1751946751" Properties=species:S:1:pos:R:3:initial_magmoms:R:1 pbc="T T T"
Si      -1.16765418       0.15877863      -2.01828162       0.00000000
Si       0.22811050       1.85355767       1.43527370       0.00000000
Si       2.31003279      -0.17990676      -0.59823737       0.00000000
Si      -1.15846662      -2.05530932       0.59566995       0.00000000
H       -2.72525512       0.59932540       0.01129080       0.00000000
H       -2.20902502      -0.93869497      -1.80054714       0.00000000
Si      -3.16971149      -0.68747059       0.67420957       0.00000000
Si       1.66548636       0.66914434       2.88128388       0.00000000
Si       1.88033517      -2.00020025      -2.07785736       0.00000000
Si       0.31706693      -0.92038501      -3.44383998       0.00000000
