10
Lattice="16.290000149 0.0 0.0 0.0 16.290000149 0.0 0.0 0.0 29.1751946751" Properties=species:S:1:pos:R:3:initial_magmoms:R:1 pbc="T T T"
Si       0.62698582      -0.40537665       2.14825711       0.00000000
Si       1.83236438       0.82448578      -1.16350676       0.00000000
Si      -0.88308091      -1.88760377      -1.06763707       0.00000000
Si      -1.60081831       1.77728789       0.08945115       0.00000000
H        2.67781538       1.75751183      -0.35299068       0.00000000
Si      -2.27564786      -0.60427756      -2.42868908       0.00000000
Si       0.53809128       2.11910096      -2.59040718       0.00000000
Si      -1.49517766      -0.98966638       3.15462627       0.00000000
Si      -3.45779688       0.84486457      -1.01383801       0.00000000
Si      -0.54527518       3.53942607      -1.09310702       0.00000000
