10
Lattice="16.290000149 0.0 0.0 0.0 16.290000149 0.0 0.0 0.0 29.1751946751" Properties=species:S:1:pos:R:3:initial_magmoms:R:1 pbc="T T T"
Si      -2.05473917       0.61249423      -0.88917241       0.00000000
Si       1.01587699      -1.64435171      -1.30416038       0.00000000
Si      -0.51214131      -1.25565602       1.93107696       0.00000000
Si       1.52459740       1.83893902       0.07299634       0.00000000
Si       2.28470510      -0.23182218      -2.61491435       0.00000000
Si      -3.29719377      -1.17306572      -0.04691371       0.00000000
Si       2.55335978      -2.64149520       0.19439432       0.00000000
Si       3.46520883       0.86531829      -0.90901154       0.00000000
Si      -2.11108628       0.27524399       3.01861152       0.00000000
Si       0.81006913       3.16999493      -1.71649340       0.00000000
