10
Lattice="16.290000149 0.0 0.0 0.0 16.290000149 0.0 0.0 0.0 29.1751946751" Properties=species:S:1:pos:R:3:initial_magmoms:R:1 pbc="T T T"
Si      -1.34592868      -1.33398811      -1.38787860       0.00000000
Si      -1.34478838       1.30246696       1.42351610       0.00000000
Si       1.30370500       1.35363385      -1.43389663       0.00000000
Si       1.34744365      -1.38544822       1.36154799       0.00000000
Si       2.69351080       2.64046241       0.00087526       0.00000000
Si      -2.69014691       2.64774404       0.05858379       0.00000000
Si       2.66473289      -0.10329489      -2.72135713       0.00000000
Si      -2.68842017      -2.75128329      -0.02827076       0.00000000
Si       0.01190799       2.65121381       2.79037397       0.00000000
Si       2.71121314      -0.05563035       2.74054274       0.00000000
