10
Lattice="16.290000149 0.0 0.0 0.0 16.290000149 0.0 0.0 0.0 29.1751946751" Properties=species:S:1:pos:R:3:initial_magmoms:R:1 pbc="T T T"
Si       1.36117612       1.36186030      -1.34363442       0.00000000
Si      -1.36355446      -1.35558865      -1.34798152       0.00000000
Si       1.35005005      -1.37684710       1.34159215       0.00000000
Si      -1.37510407       1.36348930       1.33313135       0.00000000
Si      -0.02156796       2.70023042      -2.69386243       0.00000000
Si       2.73072530      -0.01562211      -2.66748805       0.00000000
Si       2.72609894      -0.03569139       2.67393577       0.00000000
Si       0.00614133      -2.71829603      -2.68513904       0.00000000
Si      -0.02717172       2.72547992       2.68169637       0.00000000
Si      -2.71334387      -2.70259247       0.02908767       0.00000000
