10
Lattice="16.290000149 0.0 0.0 0.0 16.290000149 0.0 0.0 0.0 29.1751946751" Properties=species:S:1:pos:R:3:initial_magmoms:R:1 pbc="T T T"
Si      -1.35573526      -1.35014779      -1.35364151       0.00000000
Si      -1.34508160       1.33079527       1.38550082       0.00000000
Si       1.34154667       1.35262387      -1.38515072       0.00000000
Si       1.34434855      -1.38171781       1.35381656       0.00000000
Si       0.07078005      -2.70943427      -2.62305423       0.00000000
Si      -2.70733286       2.67041972       0.02220232       0.00000000
Si       2.70531616       2.68244174      -0.00615597       0.00000000
Si       2.69605041      -0.02909394       2.71390578       0.00000000
Si      -2.69938334      -0.05828562       2.71212610       0.00000000
Si       2.69711089      -0.03499092      -2.71489774       0.00000000
