10
Lattice="16.290000149 0.0 0.0 0.0 16.290000149 0.0 0.0 0.0 29.1751946751" Properties=species:S:1:pos:R:3:initial_magmoms:R:1 pbc="T T T"
Si      -1.19879740      -0.37784655      -0.88491283       0.00000000
H        1.43052265      -2.03875868       0.46458580       0.00000000
Si      -0.36865899       1.08248680      -2.55437582       0.00000000
Si       0.06103863       2.90278029      -1.07475582       0.00000000
Si       1.98562070       1.15110028       2.15350864       0.00000000
Si       0.59453614      -0.58933963       3.07115604       0.00000000
Si      -1.46592082      -1.59430231       2.35849356       0.00000000
Si      -1.98001368      -2.50268159       0.27331322       0.00000000
Si      -0.63692272      -2.76931632      -1.60075541       0.00000000
H        3.10702431       0.62076304      -0.77483482       0.00000000
