10
Lattice="16.290000149 0.0 0.0 0.0 16.290000149 0.0 0.0 0.0 29.1751946751" Properties=species:S:1:pos:R:3:initial_magmoms:R:1 pbc="T T T"
Si      -1.31606911       1.32291417       1.40000964       0.00000000
Si       0.99175150       1.78823802      -1.14764129       0.00000000
Si       1.38251602      -1.32458958       1.36497024       0.00000000
Si      -1.29629305      -1.28446048      -1.50662748       0.00000000
Si      -2.51737517       2.72103601      -0.04095906       0.00000000
Si       1.08115102       1.09420257      -3.37509447       0.00000000
Si      -2.63241515      -2.64853900      -0.09912856       0.00000000
Si      -0.64174456       3.52309046      -1.23391147       0.00000000
Si       0.11249874       2.72787781       2.64085985       0.00000000
Si       0.03187953      -2.71944937       2.67464472       0.00000000
