10
Lattice="16.290000149 0.0 0.0 0.0 16.290000149 0.0 0.0 0.0 29.1751946751" Properties=species:S:1:pos:R:3:initial_magmoms:R:1 pbc="T T T"
Si       1.25138152      -1.10750498       1.60355622       0.00000000
Si      -1.80302609      -1.33180688      -0.60763178       0.00000000
Si       1.21753090       1.31087260      -1.50541087       0.00000000
Si      -1.33589404       1.54720792       1.15183669       0.00000000
H        3.05427729      -0.55993943      -0.75099869       0.00000000
Si      -0.64694107      -1.12387806       2.93855478       0.00000000
Si      -0.20408112      -2.86270689      -1.69516634       0.00000000
Si       2.75726172       2.03952431       0.09534454       0.00000000
Si      -3.02469465       0.53463780      -1.56107714       0.00000000
Si      -2.54532881      -1.67369489       1.65102427       0.00000000
