10
Lattice="16.290000149 0.0 0.0 0.0 16.290000149 0.0 0.0 0.0 29.1751946751" Properties=species:S:1:pos:R:3:initial_magmoms:R:1 pbc="T T T"
Si       1.46663758      -1.31159132       1.25791769       0.00000000
Si      -1.39797523      -1.41755744      -1.25237441       0.00000000
Si      -1.27563733       1.42348374       1.37928650       0.00000000
Si       1.38666997       1.33937847      -1.37467682       0.00000000
Si       0.16576704      -2.63572365       2.64861170       0.00000000
Si      -2.65944026      -0.02257468      -2.67985833       0.00000000
Si       0.03464883      -2.69821209      -2.66071940       0.00000000
Si      -2.61193862       2.75111876      -0.02754138       0.00000000
Si       2.73391489       0.02460442       2.67883720       0.00000000
Si       0.14869512       2.70690770       2.73745017       0.00000000
