10
Lattice="16.290000149 0.0 0.0 0.0 16.290000149 0.0 0.0 0.0 29.1751946751" Properties=species:S:1:pos:R:3:initial_magmoms:R:1 pbc="T T T"
Si       0.98446987      -1.86048092       0.89077704       0.00000000
Si      -1.49271787      -1.01146240      -1.46552838       0.00000000
Si      -1.60718770       0.79298092       1.52382042       0.00000000
Si       1.65306035       1.52883280      -0.73813243       0.00000000
H        0.90308503       2.08241588       1.76413650       0.00000000
H        0.25399368       2.50758488       1.72092803       0.00000000
H       -0.89028109       0.86920183       2.85024147       0.00000000
Si      -1.95965444       2.74232379       0.15290720       0.00000000
Si       0.16250904       3.32661351      -0.85346197       0.00000000
Si      -0.06514371      -2.23505318      -2.75982754       0.00000000
