10
Lattice="16.290000149 0.0 0.0 0.0 16.290000149 0.0 0.0 0.0 29.1751946751" Properties=species:S:1:pos:R:3:initial_magmoms:R:1 pbc="T T T"
Si       1.34723188       1.32900337      -1.37152590       0.00000000
Si      -1.43620786       1.36730116       1.23743671       0.00000000
Si       1.34141635      -1.34700382       1.38129959       0.00000000
Si      -1.37995849      -1.35395965      -1.33992917       0.00000000
Si      -0.15379389      -2.71213841       2.54696532       0.00000000
Si       2.70787043       2.63598266       0.01811780       0.00000000
Si      -0.01834254      -2.73854451      -2.66176971       0.00000000
Si       2.70984152      -2.69772176       0.03973662       0.00000000
Si      -2.80508916       0.04422735       2.59854706       0.00000000
Si      -0.00801468       2.66437613      -2.74821581       0.00000000
