10
Lattice="16.290000149 0.0 0.0 0.0 16.290000149 0.0 0.0 0.0 29.1751946751" Properties=species:S:1:pos:R:3:initial_magmoms:R:1 pbc="T T T"
Si      -1.37764531      -1.36446670      -1.30451048       0.00000000
Si      -1.38704464       1.31460301       1.35650068       0.00000000
Si       1.32814000      -1.36752922       1.37555208       0.00000000
Si       1.32554989       1.38608353      -1.38290423       0.00000000
Si      -2.69369813       0.02819799      -2.64522738       0.00000000
Si      -0.01809819       2.67794570       2.68286338       0.00000000
Si       2.68630247      -0.00120546       2.70562003       0.00000000
Si      -0.04895145      -2.72284094      -2.66961784       0.00000000
Si       2.75206521       0.02679705      -2.65231695       0.00000000
Si       2.69480585      -2.71435385       0.02617015       0.00000000
