10
Lattice="16.290000149 0.0 0.0 0.0 16.290000149 0.0 0.0 0.0 29.1751946751" Properties=species:S:1:pos:R:3:initial_magmoms:R:1 pbc="T T T"
Si       0.67468294      -2.05154959      -0.77007926       0.00000000
Si      -0.60333274      -0.52235514       2.18425930       0.00000000
Si      -1.82316053       0.89166574      -1.13870785       0.00000000
Si       1.77117914       1.47994651      -0.34012442       0.00000000
H        1.38020284       0.26225271      -2.92011606       0.00000000
Si       0.15710076       1.52858845       3.06012782       0.00000000
Si      -2.86371687      -1.25167474      -1.53668668       0.00000000
Si       2.14938407       2.12390651       1.88678901       0.00000000
Si      -0.70600861       2.32896503      -2.69642984       0.00000000
Si       0.78670927       3.34042743      -1.23090146       0.00000000
