10
Lattice="16.290000149 0.0 0.0 0.0 16.290000149 0.0 0.0 0.0 29.1751946751" Properties=species:S:1:pos:R:3:initial_magmoms:R:1 pbc="T T T"
Si      -1.34723188      -1.32900337       1.37152590       0.00000000
Si       1.37187865      -1.35513253      -1.32729631       0.00000000
Si       1.36063855       1.30697929       1.38964370       0.00000000
Si      -1.35524656       1.33537276      -1.37668991       0.00000000
Si      -0.06799446       2.75038734       2.51309292       0.00000000
Si      -0.00087966      -2.72266175      -2.65631395       0.00000000
Si      -2.78343975       0.03829779       2.60896261       0.00000000
Si       2.72886824       0.01821222      -2.66783815       0.00000000
Si       2.71016732       2.69760773       0.04434630       0.00000000
Si      -2.72719037      -2.68296302       0.03159674       0.00000000
