10
Lattice="16.290000149 0.0 0.0 0.0 16.290000149 0.0 0.0 0.0 29.1751946751" Properties=species:S:1:pos:R:3:initial_magmoms:R:1 pbc="T T T"
Si       1.47533481       0.77240665       0.22885023       0.00000000
Si      -0.10808415      -1.25043670      -1.16441119       0.00000000
H        0.46374861       1.86572630       0.46560693       0.00000000
H       -0.89060689      -0.23314248       2.34215545       0.00000000
Si      -1.24651081       0.25596477      -2.60694952       0.00000000
Si      -1.39771459      -2.61834059       0.33609824       0.00000000
H        2.83051785      -0.86928328      -0.54922304       0.00000000
Si      -2.67195098       1.51013188      -1.23346888       0.00000000
Si      -1.59376474       3.19396404       0.15427843       0.00000000
Si      -0.79229674       0.83766439       3.39963956       0.00000000
