10
Lattice="16.290000149 0.0 0.0 0.0 16.290000149 0.0 0.0 0.0 29.1751946751" Properties=species:S:1:pos:R:3:initial_magmoms:R:1 pbc="T T T"
Si      -0.62698582       0.40537665      -2.14825711       0.00000000
Si       1.49055130      -1.79778071       0.11532954       0.00000000
Si       0.97293655       1.99378199       0.87630615       0.00000000
Si      -2.12216348      -0.58428973       1.00636917       0.00000000
H        0.09148464      -0.81902863       2.57439000       0.00000000
H        0.74057599      -1.24419763       2.61759847       0.00000000
H        2.28824003       1.53920953       1.47979505       0.00000000
H        2.85913938       1.41027418      -0.84870641       0.00000000
Si      -2.34387038       1.55132929       1.91578916       0.00000000
Si      -0.16250904      -3.32661351       0.85346197       0.00000000
