10
Lattice="16.290000149 0.0 0.0 0.0 16.290000149 0.0 0.0 0.0 29.1751946751" Properties=species:S:1:pos:R:3:initial_magmoms:R:1 pbc="T T T"
Si      -1.36100638      -1.39546657      -1.31811196       0.00000000
Si       1.29234924      -1.35428545       1.43124753       0.00000000
Si      -1.35077642       1.32559876       1.40711964       0.00000000
Si       1.37482551       1.36078516      -1.36122706       0.00000000
Si      -2.66022381      -2.68504652       0.15459936       0.00000000
Si      -2.81014068      -0.00917127      -2.54281952       0.00000000
Si       0.07180795      -2.70233509      -2.66973162       0.00000000
Si       2.69470649       2.70212006       0.03255952       0.00000000
Si       2.64976238      -2.74923726       0.14333773       0.00000000
Si      -2.67910392       2.73582408       0.09671577       0.00000000
