10
Lattice="16.290000149 0.0 0.0 0.0 16.290000149 0.0 0.0 0.0 29.1751946751" Properties=species:S:1:pos:R:3:initial_magmoms:R:1 pbc="T T T"
H       -1.43197246       0.30499767       0.45349923       0.00000000
Si       0.44882208      -2.13218183       0.88812210       0.00000000
Si      -0.35264592       0.22411782      -2.35723903       0.00000000
Si       1.21171537       1.59637114       1.42698795       0.00000000
H        1.70486743      -1.10411992      -2.04591053       0.00000000
H        0.16115697       2.71298549      -0.96922914       0.00000000
H        0.35051193      -3.20298870      -0.16936200       0.00000000
Si      -0.79952950       2.96420988       1.50552757       0.00000000
Si       3.42037875       0.19114686       0.42292362       0.00000000
Si      -2.04169088       1.90871561      -2.10291886       0.00000000
