10
Lattice="16.290000149 0.0 0.0 0.0 16.290000149 0.0 0.0 0.0 29.1751946751" Properties=species:S:1:pos:R:3:initial_magmoms:R:1 pbc="T T T"
H        1.35645202       0.57803437       0.27307982       0.00000000
Si      -0.46776735       0.42088473      -2.21180068       0.00000000
Si      -1.35462754       1.35387820       1.32863837       0.00000000
Si      -0.45328554      -2.20789775       0.61087023       0.00000000
H        2.27968778      -1.18421785      -0.17236705       0.00000000
H        2.95484313      -0.26424009       1.44478482       0.00000000
Si       0.62333686      -2.11701584       2.71192187       0.00000000
Si       1.36195804       1.71603749      -2.84601107       0.00000000
Si      -2.76331834      -2.02799099       1.20910759       0.00000000
Si      -2.53520784      -0.17443332       2.64438129       0.00000000
