10
Lattice="16.290000149 0.0 0.0 0.0 16.290000149 0.0 0.0 0.0 29.1751946751" Properties=species:S:1:pos:R:3:initial_magmoms:R:1 pbc="T T T"
Si      -1.36876726      -1.34368066       1.34237988       0.00000000
Si      -1.38142459       1.34597755      -1.33636979       0.00000000
Si       1.35050617      -1.36425493      -1.35559625       0.00000000
Si       1.36568845       1.36231642       1.35229945       0.00000000
Si       0.00586440       2.70488936      -2.64088027       0.00000000
Si      -0.00302994      -2.70099605       2.67139753       0.00000000
Si       2.71451675      -0.00360009      -2.68566420       0.00000000
Si      -2.70811478      -2.70601337      -0.02366108       0.00000000
Si      -2.70023042       2.71588511       0.05187350       0.00000000
Si      -2.68755680       0.01878237       2.73211111       0.00000000
