10
Lattice="16.290000149 0.0 0.0 0.0 16.290000149 0.0 0.0 0.0 29.1751946751" Properties=species:S:1:pos:R:3:initial_magmoms:R:1 pbc="T T T"
Si       1.42433245       1.28342395       1.35816366       0.00000000
Si      -1.33630129       1.32763501      -1.40682789       0.00000000
Si      -1.29803608      -1.01560006       1.67879905       0.00000000
Si       1.27563733      -1.42348374      -1.37928650       0.00000000
Si      -0.00110772       2.53759106       2.73164430       0.00000000
Si       0.09262494      -2.68802188       2.59530862       0.00000000
Si       2.56275911      -0.22297752       2.80070199       0.00000000
Si      -2.70472646       2.67835295      -0.06526491       0.00000000
Si      -1.38201103       0.71379523       3.49372956       0.00000000
Si       2.66230730      -0.08410527      -2.75396333       0.00000000
