10
Lattice="16.290000149 0.0 0.0 0.0 16.290000149 0.0 0.0 0.0 29.1751946751" Properties=species:S:1:pos:R:3:initial_magmoms:R:1 pbc="T T T"
Si       0.90010396      -0.74375254      -0.97751490       0.00000000
Si      -1.08100441       1.71198128       0.79001059       0.00000000
Si      -1.91589950      -0.28517274       1.87920055       0.00000000
Si      -1.32942691       2.22480677      -1.50745313       0.00000000
Si       2.30298264      -1.91280440       0.48279112       0.00000000
Si      -0.69344902      -1.87251923      -2.31782334       0.00000000
Si       2.05345226       0.89373457      -2.15946038       0.00000000
Si       0.86146408       2.56577276       1.84859869       0.00000000
Si      -0.48850452      -1.65200150       3.21246610       0.00000000
Si      -3.22385619      -1.73110574       0.50861117       0.00000000
