10
Lattice="16.28999089631971 0.0 0.0 0.0 16.28999089631971 0.0 0.0 0.0 34.69518985606464" Properties=species:S:1:pos:R:3:initial_magmoms:R:1 pbc="T T T"
Si      -0.96820334       1.62566055       1.40040273       0.00000000
Si       0.33068863       1.19878110      -2.01700599       0.00000000
Si       1.69536546      -0.97787241       1.38968191       0.00000000
Si      -1.06279937      -2.14441560      -0.48677379       0.00000000
Si      -1.85573141       2.08039494      -1.80415088       0.00000000
Si      -2.40467183       0.34894809       2.79879804       0.00000000
Si       0.25110872      -0.49888125      -3.69680924       0.00000000
Si       0.45170541      -2.38961268       2.85065350       0.00000000
Si       2.37348558      -2.90423007       0.00915954       0.00000000
Si      -0.98478656      -2.37154707      -2.94791315       0.00000000
