10
Lattice="16.28999089631971 0.0 0.0 0.0 16.28999089631971 0.0 0.0 0.0 34.69518985606464" Properties=species:S:1:pos:R:3:initial_magmoms:R:1 pbc="T T T"
Si      -1.35589815      -1.35450184       1.35738067       0.00000000
Si       1.36114353      -1.35163480      -1.35592347       0.00000000
Si       1.35961227       1.35993574       1.35751945       0.00000000
Si      -1.35588186       1.36278812      -1.36261965       0.00000000
Si       2.70523143      -0.00059107      -2.71234309       0.00000000
Si       0.00179190      -2.71215931       2.71441439       0.00000000
Si       2.71518462      -2.71157287       0.00072860       0.00000000
Si      -2.71368594       0.00315201       2.71510829       0.00000000
Si       2.71621089       0.00304911       2.71486543       0.00000000
Si       2.71547784       2.71565959       0.00121433       0.00000000
