10
Lattice="16.28999089631971 0.0 0.0 0.0 16.28999089631971 0.0 0.0 0.0 34.69518985606464" Properties=species:S:1:pos:R:3:initial_magmoms:R:1 pbc="T T T"
Si      -0.88037676      -1.91315366      -1.21360372       0.00000000
Si       1.88797842       0.83930967      -1.33246951       0.00000000
Si       0.56096244      -0.57997776       2.39764713       0.00000000
Si      -2.09142586       1.61196066       0.00027756       0.00000000
Si       0.45036963       2.18113326      -2.72603729       0.00000000
Si      -2.25115583      -0.58179572      -2.75285668       0.00000000
Si       1.17099036      -2.87307449       2.07588376       0.00000000
Si       3.51280818       1.20241377       0.62496480       0.00000000
Si      -1.00900260       3.45880683      -1.15597498       0.00000000
Si       2.52190377       0.67922784       2.92036515       0.00000000
