10
Lattice="16.28999089631971 0.0 0.0 0.0 16.28999089631971 0.0 0.0 0.0 34.69518985606464" Properties=species:S:1:pos:R:3:initial_magmoms:R:1 pbc="T T T"
Si       1.27172772      -1.40871522      -1.41917284       0.00000000
Si      -1.43760879       1.34182359      -1.39356777       0.00000000
Si      -1.88797842      -0.83930967       1.33246951       0.00000000
Si       1.62482976       0.36310410       1.95743432       0.00000000
Si       2.25766368      -3.08878667      -0.05433270       0.00000000
Si       2.63604780      -0.02485854      -2.77932913       0.00000000
Si       3.34941948      -1.38471353       1.24899284       0.00000000
Si      -0.95817780       3.46862970       1.37080772       0.00000000
Si      -0.07850151       2.68187157      -2.77648412       0.00000000
Si      -2.76835518      -2.75246333       0.11886579       0.00000000
