10
Lattice="16.28999089631971 0.0 0.0 0.0 16.28999089631971 0.0 0.0 0.0 34.69518985606464" Properties=species:S:1:pos:R:3:initial_magmoms:R:1 pbc="T T T"
Si       1.96094133       1.25920560       0.52271802       0.00000000
Si       0.61002792      -2.29309673      -0.32176337       0.00000000
Si      -0.56096244       0.57997776      -2.39764713       0.00000000
Si      -1.37381715      -0.16683729       2.28839192       0.00000000
Si       3.05378856      -0.40156805       1.83024168       0.00000000
Si       2.19147741      -2.58849959       1.40435798       0.00000000
Si       2.95184574       1.78239153      -1.77268233       0.00000000
Si      -1.41692049      -3.66056078       0.10949808       0.00000000
Si      -1.44133920      -1.33317590      -3.61125085       0.00000000
Si       1.81610694       2.94179970       2.34282870       0.00000000
