10
Lattice="16.28999089631971 0.0 0.0 0.0 16.28999089631971 0.0 0.0 0.0 34.69518985606464" Properties=species:S:1:pos:R:3:initial_magmoms:R:1 pbc="T T T"
Si       0.35458443      -0.79894305      -2.15027029       0.00000000
Si      -2.31485787      -0.24195537       0.53885129       0.00000000
Si       1.73542257      -0.60756813       1.65489209       0.00000000
Si      -2.36219661       1.29489210       2.32579335       0.00000000
Si       1.15849593       0.98148879      -3.43309095       0.00000000
Si       1.34622189       0.94381002       3.38347681       0.00000000
Si      -1.58421879      -1.64807559      -3.34458348       0.00000000
Si       1.81683999       2.92117167      -2.27017693       0.00000000
Si       1.80185319      -2.74506048       2.55186734       0.00000000
Si      -3.05914634      -2.33443845       1.70787168       0.00000000
