10
Lattice="16.28999089631971 0.0 0.0 0.0 16.28999089631971 0.0 0.0 0.0 34.69518985606464" Properties=species:S:1:pos:R:3:initial_magmoms:R:1 pbc="T T T"
Si      -1.69241697       1.72810836       0.15841833       0.00000000
Si      -0.67994460      -1.84596651       1.48690278       0.00000000
Si      -0.52186644      -1.39541769      -2.03608835       0.00000000
Si       2.01135888       0.71017884       1.44697554       0.00000000
Si       0.51194583       2.67993306      -1.31987515       0.00000000
Si      -1.91627415      -0.53147754       2.93527511       0.00000000
Si       0.83269593       2.16580437       2.92923815       0.00000000
Si      -0.71576631       3.31543854       1.63183508       0.00000000
Si      -3.42746487       0.59636061       1.47597726       0.00000000
Si       2.61185715       1.88797842      -2.07865938       0.00000000
