10
Lattice="16.28999089631971 0.0 0.0 0.0 16.28999089631971 0.0 0.0 0.0 34.69518985606464" Properties=species:S:1:pos:R:3:initial_magmoms:R:1 pbc="T T T"
Si      -1.33718094      -1.34970795       1.37548810       0.00000000
Si       1.10793177      -1.57022568      -1.39164566       0.00000000
Si       1.37883447       1.36404315       1.37586975       0.00000000
Si      -1.35553977       1.31808906      -1.50961631       0.00000000
Si       2.05700346       0.20346210      -2.66044842       0.00000000
Si       0.39697101       2.17753317      -2.95379541       0.00000000
Si      -2.69079849       2.71586880      -0.01715331       0.00000000
Si      -2.70656721      -2.71863810       0.00607513       0.00000000
Si      -2.69749368      -0.00040725       2.73227895       0.00000000
Si       2.72292237       2.71508688       0.01945013       0.00000000
