10
Lattice="16.28999089631971 0.0 0.0 0.0 16.28999089631971 0.0 0.0 0.0 34.69518985606464" Properties=species:S:1:pos:R:3:initial_magmoms:R:1 pbc="T T T"
Si       1.73043783      -0.96964596      -1.29895394       0.00000000
Si      -1.00168839       1.74941568      -1.28944745       0.00000000
Si       1.12114296       1.29606498       1.67123353       0.00000000
Si      -1.16818848      -1.70435754       1.36886479       0.00000000
Si      -0.67564404      -0.63566838       3.32876246       0.00000000
Si       0.37015767      -2.31314742      -2.66719421       0.00000000
Si      -2.35310679       0.40684275      -2.66584110       0.00000000
Si       2.29912173      -0.53585955       2.74796466       0.00000000
Si       0.94392405      -3.23801217       1.36633204       0.00000000
Si       2.69750997       2.77444764       0.06109826       0.00000000
