10
Lattice="16.28999089631971 0.0 0.0 0.0 16.28999089631971 0.0 0.0 0.0 34.69518985606464" Properties=species:S:1:pos:R:3:initial_magmoms:R:1 pbc="T T T"
Si      -1.12114296      -1.29606498      -1.67123353       0.00000000
Si       1.17797877      -1.83192453       1.07673112       0.00000000
Si      -1.39828473       0.85478517       1.85255070       0.00000000
Si       1.57636701       1.47838266      -1.61013527       0.00000000
Si      -1.79678700      -1.93173336       1.65752893       0.00000000
Si       2.12035527      -0.30025728       2.47831349       0.00000000
Si       0.18316476       0.55938231       3.57867205       0.00000000
Si      -2.12283135       0.45335070      -2.96068099       0.00000000
Si       0.60929487      -2.26571094      -2.97018747       0.00000000
Si      -2.28933144      -3.00042252      -0.30236875       0.00000000
