10
Lattice="16.28999089631971 0.0 0.0 0.0 16.28999089631971 0.0 0.0 0.0 34.69518985606464" Properties=species:S:1:pos:R:3:initial_magmoms:R:1 pbc="T T T"
Si      -1.62844614       1.41905448       0.62628322       0.00000000
Si      -0.49254444      -1.06868916      -1.95989768       0.00000000
Si       1.57802859      -1.66408866       0.34962362       0.00000000
Si       0.39850227       2.78651853       0.19502177       0.00000000
Si       2.97476577       0.09980883      -0.58079780       0.00000000
Si       1.79678700       1.93173336      -1.65752893       0.00000000
Si       0.67564404       0.63566838      -3.32876246       0.00000000
Si       1.61956809      -2.60234379      -1.96243043       0.00000000
Si       1.97995176       2.49111567       1.92114313       0.00000000
Si       1.80830403      -2.54514960       2.61313907       0.00000000
