10
Lattice="16.28999089631971 0.0 0.0 0.0 16.28999089631971 0.0 0.0 0.0 34.69518985606464" Properties=species:S:1:pos:R:3:initial_magmoms:R:1 pbc="T T T"
Si      -0.59417775       2.15909682      -0.54703936       0.00000000
Si       1.58089563      -0.81880056      -1.54823902       0.00000000
Si      -2.04237504      -1.01147868      -0.67242785       0.00000000
Si       0.55614060      -0.50999103       2.37235432       0.00000000
Si      -2.36136582       2.13927189       0.98499699       0.00000000
Si       2.54511702      -1.56538755       1.69784476       0.00000000
Si       1.01690325      -3.09135330      -1.29062709       0.00000000
Si       3.47569956      -0.56454624      -0.21202242       0.00000000
Si      -3.48203800      -0.00371412       0.96258389       0.00000000
Si      -1.37606517      -3.26821383      -1.02663124       0.00000000
