10
Lattice="16.28999089631971 0.0 0.0 0.0 16.28999089631971 0.0 0.0 0.0 34.69518985606464" Properties=species:S:1:pos:R:3:initial_magmoms:R:1 pbc="T T T"
Si      -1.17250533       1.48498337       1.41242809       0.00000000
Si      -1.69969860      -1.08640730      -1.25745916       0.00000000
Si       1.54474812      -1.23310806       1.38416537       0.00000000
Si       0.68328405       1.78763528      -1.48068193       0.00000000
Si      -3.36945618       0.89706098      -1.35647308       0.00000000
Si      -2.51941140       2.76961277      -0.03267942       0.00000000
Si      -2.52442872       0.13475577       2.77261907       0.00000000
Si       2.66981697       2.68249385      -0.12139160       0.00000000
Si       0.18868707      -2.57820594       2.76762296       0.00000000
Si       2.71555929      -2.69147031      -0.14404410       0.00000000
