10
Lattice="16.28999089631971 0.0 0.0 0.0 16.28999089631971 0.0 0.0 0.0 34.69518985606464" Properties=species:S:1:pos:R:3:initial_magmoms:R:1 pbc="T T T"
Si       1.36746405       1.34118828      -1.36556874       0.00000000
Si      -1.35764118      -1.36213722      -1.35692963       0.00000000
Si       1.06122834      -1.64475243       1.32129765       0.00000000
Si      -0.82025037       1.88072937       1.28171042       0.00000000
Si       2.13548868      -0.07064973       2.65952657       0.00000000
Si      -0.52595523       0.69046794       3.39815288       0.00000000
Si       2.69785206       2.70168021       0.01946401       0.00000000
Si       2.69278587      -2.72471101      -0.01148411       0.00000000
Si      -2.70591561       2.71301805       0.01734760       0.00000000
Si       0.00073305       2.70120780      -2.71843903       0.00000000
