10
Lattice="16.28999089631971 0.0 0.0 0.0 16.28999089631971 0.0 0.0 0.0 34.69518985606464" Properties=species:S:1:pos:R:3:initial_magmoms:R:1 pbc="T T T"
Si       1.35563751       1.35470898       1.35713780       0.00000000
Si      -1.35764118       1.35796698      -1.35807458       0.00000000
Si       1.35801585      -1.35772263      -1.35828275       0.00000000
Si      -1.35912357      -1.35855342       1.35713780       0.00000000
Si      -0.00273672      -2.70863604       2.71864721       0.00000000
Si       2.71272483      -0.00104256      -2.71483073       0.00000000
Si      -0.00161271       2.71295289      -2.71555933       0.00000000
Si       2.71552671      -2.71404432      -0.00076329       0.00000000
Si      -2.71466334       2.71505430      -0.00190824       0.00000000
Si      -0.00744453       2.72108160       2.70875907       0.00000000
