10
Lattice="16.28999089631971 0.0 0.0 0.0 16.28999089631971 0.0 0.0 0.0 34.69518985606464" Properties=species:S:1:pos:R:3:initial_magmoms:R:1 pbc="T T T"
Si      -1.23632955       1.31448897       1.44837233       0.00000000
Si      -1.88569782      -0.98435583      -1.09639845       0.00000000
Si       0.67994460       1.84596651      -1.48690278       0.00000000
Si       1.49838678      -1.41289686       1.39830714       0.00000000
Si       0.15807816       0.45054882      -3.52299114       0.00000000
Si      -2.74752027       2.44232712      -0.01092552       0.00000000
Si       2.69130348       2.55614535      -0.03992725       0.00000000
Si      -2.56851109      -0.05067819       2.79557689       0.00000000
Si       0.14294475       2.66374080       2.79890763       0.00000000
Si       0.14305878      -2.76422078       2.79328701       0.00000000
