10
Lattice="16.28999089631971 0.0 0.0 0.0 16.28999089631971 0.0 0.0 0.0 34.69518985606464" Properties=species:S:1:pos:R:3:initial_magmoms:R:1 pbc="T T T"
Si      -1.76161689       1.63452231      -0.01890889       0.00000000
Si       2.02393476       1.12278825      -0.83601576       0.00000000
Si       0.57570489      -0.80801658       2.26271746       0.00000000
Si      -0.60774732      -1.80879273      -1.58605680       0.00000000
Si       1.74768894       0.33057297      -3.03621246       0.00000000
Si       1.44632394      -1.99819656      -2.78925196       0.00000000
Si      -0.75482973       3.67505658       0.63856533       0.00000000
Si       3.79425051      -0.32413842      -0.31489372       0.00000000
Si      -3.42495621       1.05331140       1.59240602       0.00000000
Si       3.08936592      -2.44752363       0.64422065       0.00000000
