10
Lattice="16.28999089631971 0.0 0.0 0.0 16.28999089631971 0.0 0.0 0.0 34.69518985606464" Properties=species:S:1:pos:R:3:initial_magmoms:R:1 pbc="T T T"
Si       1.81446165      -1.34100909      -0.71055789       0.00000000
Si      -1.11850398      -1.61660331       1.41927692       0.00000000
Si      -1.33263603       0.87884550      -1.89539928       0.00000000
Si       1.91962989       1.23127965       1.56350491       0.00000000
Si       0.60921342      -3.21678630      -1.50202500       0.00000000
Si      -0.97401168       3.21064497      -1.57436451       0.00000000
Si      -1.49866371      -3.39727950      -0.40499718       0.00000000
Si       2.66839974      -0.31353363      -2.63416437       0.00000000
Si      -3.21841530      -0.82464867       2.17806115       0.00000000
Si       1.36420605       3.49633899      -1.37923865       0.00000000
