10
Lattice="16.28999089631971 0.0 0.0 0.0 16.28999089631971 0.0 0.0 0.0 34.69518985606464" Properties=species:S:1:pos:R:3:initial_magmoms:R:1 pbc="T T T"
Si      -1.35687202       1.35685926      -1.35779701       0.00000000
Si       1.35805589      -1.35767376      -1.35758884       0.00000000
Si       1.35922388       1.35650088       1.35918482       0.00000000
Si      -1.35858247      -1.36042840       1.35717250       0.00000000
Si      -2.71449691       2.71337643      -0.00079799       0.00000000
Si       2.71379440      -0.00104256      -2.71427561       0.00000000
Si       0.00049396       2.71419093      -2.71476134       0.00000000
Si      -2.71381273       0.00355122       2.71566342       0.00000000
Si      -2.71428514      -2.71561912      -0.00010409       0.00000000
Si       0.00275135      -2.71453786       2.71555933       0.00000000
