10
Lattice="16.28999089631971 0.0 0.0 0.0 16.28999089631971 0.0 0.0 0.0 34.69518985606464" Properties=species:S:1:pos:R:3:initial_magmoms:R:1 pbc="T T T"
Si       1.34610786       1.33082784       1.39051460       0.00000000
Si      -1.35941679       1.35412254      -1.35817866       0.00000000
Si       1.35145098      -1.36373364      -1.35776232       0.00000000
Si      -1.34928441      -1.37485971       1.36858722       0.00000000
Si      -0.38221227       2.36923389       2.72863943       0.00000000
Si      -0.00169416       2.71209703      -2.71555933       0.00000000
Si      -2.70956457      -2.71836117       0.00034695       0.00000000
Si       2.71419093      -0.00302994      -2.71510829       0.00000000
Si       2.71456560       2.71674853       0.00100616       0.00000000
Si      -2.71611315      -0.00311139      -2.71601037       0.00000000
