10
Lattice="16.28999089631971 0.0 0.0 0.0 16.28999089631971 0.0 0.0 0.0 34.69518985606464" Properties=species:S:1:pos:R:3:initial_magmoms:R:1 pbc="T T T"
Si      -1.35570267      -1.35519072      -1.35727659       0.00000000
Si       1.36133382      -1.35410946       1.35838683       0.00000000
Si       1.35858247       1.36042840      -1.35717250       0.00000000
Si      -1.35523026       1.36397962       1.35849092       0.00000000
Si       0.00190593      -2.71237201      -2.71486543       0.00000000
Si       2.71230033      -2.71512502      -0.00079799       0.00000000
Si      -2.71383255       0.00340787      -2.71458787       0.00000000
Si      -2.71596654      -2.71445713       0.00000000       0.00000000
Si       2.71663836       0.00275464      -2.71476134       0.00000000
Si       0.00171045       2.71728766      -2.71496951       0.00000000
