10
Lattice="16.28999089631971 0.0 0.0 0.0 16.28999089631971 0.0 0.0 0.0 34.69518985606464" Properties=species:S:1:pos:R:3:initial_magmoms:R:1 pbc="T T T"
Si      -0.08159661       1.10267010       1.99174788       0.00000000
Si       2.22998697      -0.03465698      -0.72464414       0.00000000
Si      -0.74557701      -2.20179617       0.72179913       0.00000000
Si      -0.99782766       1.49709987      -1.74527311       0.00000000
Si       1.72281411      -0.40820785       2.73165791       0.00000000
Si      -0.35564328      -2.86716122      -1.52763006       0.00000000
Si       1.62943983      -1.70218187      -2.28658777       0.00000000
Si       0.82349208       0.13041937      -3.50012210       0.00000000
Si       3.23436877      -1.23422390       1.05750998       0.00000000
Si       0.39944709       3.38660955      -1.30117443       0.00000000
