10
Lattice="16.28999089631971 0.0 0.0 0.0 16.28999089631971 0.0 0.0 0.0 34.69518985606464" Properties=species:S:1:pos:R:3:initial_magmoms:R:1 pbc="T T T"
Si       1.41700913      -0.94895766      -1.56804998       0.00000000
Si       0.25453125       2.11859595      -0.93125411       0.00000000
Si       1.22839373      -0.40902561       1.94626246       0.00000000
Si      -2.12529114      -0.85512726       0.51772191       0.00000000
Si      -0.20572641      -2.24974348      -2.59391793       0.00000000
Si       1.99259673       1.77806979       2.33835302       0.00000000
Si       2.09977027       2.95544583       0.24123579       0.00000000
Si      -0.48695697      -1.20298392       3.51219603       0.00000000
Si       2.59749656      -2.66683916      -0.45169693       0.00000000
Si      -2.55406023      -0.31203495       2.79709307       0.00000000
