10
Lattice="16.28999089631971 0.0 0.0 0.0 16.28999089631971 0.0 0.0 0.0 34.69518985606464" Properties=species:S:1:pos:R:3:initial_magmoms:R:1 pbc="T T T"
Si       1.35812988       1.35612621      -1.35689494       0.00000000
Si      -1.35648459       1.35689184       1.35786640       0.00000000
Si       1.35799956      -1.35881406       1.35717250       0.00000000
Si      -1.35909099      -1.35878148      -1.35644390       0.00000000
Si      -0.00167787      -2.71520091       2.71264493       0.00000000
Si      -2.71220355       0.00026064      -2.71628793       0.00000000
Si      -2.71446786       2.71476108       0.00038165       0.00000000
Si      -2.71379997      -2.71546155       0.00010409       0.00000000
Si       2.71391400      -0.00162900       2.71542055       0.00000000
Si       2.71562445      -2.71533123       0.00017348       0.00000000
