10
Lattice="16.28999089631971 0.0 0.0 0.0 16.28999089631971 0.0 0.0 0.0 34.69518985606464" Properties=species:S:1:pos:R:3:initial_magmoms:R:1 pbc="T T T"
Si       1.34705268      -1.34636850      -1.35387646       0.00000000
Si       1.34954505       1.33680627       1.36744228       0.00000000
Si      -1.36907024       1.36420605      -1.34943547       0.00000000
Si      -1.36049519      -1.34299647       1.39346369       0.00000000
Si      -0.39809502       2.24262801       2.65456515       0.00000000
Si      -2.23281166       0.43906437       2.75372406       0.00000000
Si       2.70234810      -2.70876636       0.01283723       0.00000000
Si       2.70497079       0.00819387      -2.71056322       0.00000000
Si      -0.00899208      -2.70642060      -2.70931419       0.00000000
Si      -0.01081656       2.72350881      -2.70931419       0.00000000
