10
Lattice="16.28999089631971 0.0 0.0 0.0 16.28999089631971 0.0 0.0 0.0 34.69518985606464" Properties=species:S:1:pos:R:3:initial_magmoms:R:1 pbc="T T T"
Si      -0.25453125      -2.11859595       0.93125411       0.00000000
Si      -1.76096529       1.50079770       0.31923062       0.00000000
Si       1.84523902       0.83684988       1.17248990       0.00000000
Si      -0.09967851       0.26868726      -2.40316367       0.00000000
Si       1.16247788      -3.06755361      -0.63679587       0.00000000
Si      -0.45377424       3.31058412      -0.46710160       0.00000000
Si      -3.46384044       0.17260884      -0.59044307       0.00000000
Si      -2.32818309      -0.45486567      -2.59960794       0.00000000
Si       1.31720355       3.17249379       1.08339260       0.00000000
Si       1.73806548      -0.34052616       3.26960713       0.00000000
