10
Lattice="16.28999089631971 0.0 0.0 0.0 16.28999089631971 0.0 0.0 0.0 34.69518985606464" Properties=species:S:1:pos:R:3:initial_magmoms:R:1 pbc="T T T"
Si       1.93880322       0.84913254       1.19431319       0.00000000
Si      -1.08242326      -1.84684617       1.15625254       0.00000000
Si      -1.24436378       1.42814430      -1.57235219       0.00000000
Si       1.45937223      -1.27767357      -1.57006230       0.00000000
Si       1.00900260      -3.45880683       1.15597498       0.00000000
Si       2.74271472       2.62956438      -0.08850748       0.00000000
Si      -2.11668025       3.21020514      -0.21209181       0.00000000
Si       2.89698102      -2.61949716      -0.17649453       0.00000000
Si      -2.61366622       0.06791301      -2.95301334       0.00000000
Si      -2.73785120      -2.83652883      -0.27790863       0.00000000
