10
Lattice="16.28999089631971 0.0 0.0 0.0 16.28999089631971 0.0 0.0 0.0 34.69518985606464" Properties=species:S:1:pos:R:3:initial_magmoms:R:1 pbc="T T T"
Si       1.35606105       1.35402480       1.35463975       0.00000000
Si       1.35674523      -1.35772263      -1.35797049       0.00000000
Si      -1.35834165       1.35713619      -1.35776232       0.00000000
Si      -1.36049193      -1.35900954       1.35904604       0.00000000
Si       2.70609966       0.00851967       2.71427561       0.00000000
Si       2.71152685      -0.00136836      -2.71420622       0.00000000
Si      -0.00118917       2.71187775      -2.71538586       0.00000000
Si       2.71329998       2.71443528      -0.00079799       0.00000000
Si       2.71359689      -2.71529865      -0.00006939       0.00000000
Si      -2.71559187       2.71417464       0.00024287       0.00000000
