10
Lattice="16.28999089631971 0.0 0.0 0.0 16.28999089631971 0.0 0.0 0.0 34.69518985606464" Properties=species:S:1:pos:R:3:initial_magmoms:R:1 pbc="T T T"
Si      -1.34148150      -1.33719723      -1.39662095       0.00000000
Si       1.37297007       1.37365425      -1.39637809       0.00000000
Si      -1.49079564       1.19811321       1.59136516       0.00000000
Si       1.21720509      -1.76782338       1.44519425       0.00000000
Si       2.60434746      -0.29155842       2.58541760       0.00000000
Si      -2.71417464       2.70940167      -0.01023509       0.00000000
Si      -2.70824508      -2.71995759      -0.04035053       0.00000000
Si       2.71195920       2.73196332      -0.01526589       0.00000000
Si       2.74484871      -2.70286938      -0.03185020       0.00000000
Si       0.00900837      -2.69764029      -2.75705480       0.00000000
