10
Lattice="16.28999089631971 0.0 0.0 0.0 16.28999089631971 0.0 0.0 0.0 34.69518985606464" Properties=species:S:1:pos:R:3:initial_magmoms:R:1 pbc="T T T"
Si       0.72262440      -2.14944921      -0.57476084       0.00000000
Si      -0.22362912       1.00242144      -2.16272587       0.00000000
Si      -2.12059962      -0.92721051       0.70646385       0.00000000
Si       0.91916325       0.85027284       2.11651185       0.00000000
Si      -2.86093125       1.14653907       1.50754154       0.00000000
Si       2.49360219      -2.28753954       0.97573337       0.00000000
Si      -1.91707236      -0.53558262      -3.04106979       0.00000000
Si      -1.12026330       1.91006766       2.92952469       0.00000000
Si       1.66698423      -1.33323876       3.01820564       0.00000000
Si      -1.16168877       3.16252431      -1.83995634       0.00000000
