10
Lattice="16.28999089631971 0.0 0.0 0.0 16.28999089631971 0.0 0.0 0.0 34.69518985606464" Properties=species:S:1:pos:R:3:initial_magmoms:R:1 pbc="T T T"
Si      -1.96379208      -1.02324006       0.64706565       0.00000000
Si      -0.69910164       2.26755171       0.12622117       0.00000000
Si       0.49998897      -1.20624192      -2.01728355       0.00000000
Si       1.95007590       2.26942506       0.50578676       0.00000000
Si       2.23433560       0.51160374       2.31677260       0.00000000
Si      -1.24672257      -1.37929059       2.83810875       0.00000000
Si       2.02808871       2.04229359      -1.95535260       0.00000000
Si       2.70158151      -0.33469434      -2.32742403       0.00000000
Si      -0.19399761       2.89603620      -2.11498526       0.00000000
Si      -2.02043241      -2.89364157      -0.71607442       0.00000000
