10
Lattice="16.28999089631971 0.0 0.0 0.0 16.28999089631971 0.0 0.0 0.0 34.69518985606464" Properties=species:S:1:pos:R:3:initial_magmoms:R:1 pbc="T T T"
Si       1.35715248       1.35474156      -1.35762354       0.00000000
Si      -1.35725022       1.35703845       1.35800519       0.00000000
Si       1.35834165      -1.35713619       1.35776232       0.00000000
Si      -1.35904212      -1.35931905      -1.35696433       0.00000000
Si       2.71440270      -0.00311139       2.71240207       0.00000000
Si      -0.00276930       2.71252935       2.71486543       0.00000000
Si       2.71599912       0.00037467      -2.71264493       0.00000000
Si       2.71510317       2.71461447       0.00000000       0.00000000
Si       2.71508688      -2.71485882      -0.00020817       0.00000000
Si      -2.71511946       2.71500543       0.00027756       0.00000000
