10
Lattice="16.28999089631971 0.0 0.0 0.0 16.28999089631971 0.0 0.0 0.0 34.69518985606464" Properties=species:S:1:pos:R:3:initial_magmoms:R:1 pbc="T T T"
Si      -0.21025503      -2.32165080      -0.11674938       0.00000000
Si      -0.38993373       0.66536505       2.24942920       0.00000000
Si      -1.68498873       0.38170728      -1.65655746       0.00000000
Si       1.98508311       1.16497935      -0.75895770       0.00000000
Si       0.35564328       2.86716122       1.52763006       0.00000000
Si      -0.10388133       1.45238382      -3.27519306       0.00000000
Si       1.88520912      -3.24956178       0.24321342       0.00000000
Si       1.17913536       2.99758059      -1.97249204       0.00000000
Si       1.43252631      -2.83338486      -2.06141586       0.00000000
Si      -2.68167609       0.75955383       2.60189783       0.00000000
