10
Lattice="16.28999089631971 0.0 0.0 0.0 16.28999089631971 0.0 0.0 0.0 34.69518985606464" Properties=species:S:1:pos:R:3:initial_magmoms:R:1 pbc="T T T"
Si      -0.17490573       1.87032006      -1.41112355       0.00000000
Si       1.74324177       0.76701465       1.42198315       0.00000000
Si      -2.01846295       0.05380587       1.27761639       0.00000000
Si       0.72480726      -1.90506663      -1.33288585       0.00000000
Si       1.82032605      -1.19773854       2.72832717       0.00000000
Si       2.04905394       1.89581391      -2.17688151       0.00000000
Si      -0.75364056       3.54908601       0.13333369       0.00000000
Si       3.40658109       1.34822556      -0.18933176       0.00000000
Si      -2.54649841       2.38944978       1.18851909       0.00000000
Si      -1.28594889      -2.76944661      -2.21650344       0.00000000
