10
Lattice="16.28999089631971 0.0 0.0 0.0 16.28999089631971 0.0 0.0 0.0 34.69518985606464" Properties=species:S:1:pos:R:3:initial_magmoms:R:1 pbc="T T T"
Si      -0.58096656      -0.75504150       2.14929882       0.00000000
Si      -1.74066795      -0.76352859      -1.42198315       0.00000000
Si      -0.31234446       2.35323711       0.28842127       0.00000000
Si       2.03942655      -1.05979482      -0.81301284       0.00000000
Si       1.12026330      -1.91006766      -2.92952469       0.00000000
Si      -1.00033632      -2.83727817      -2.22306084       0.00000000
Si      -3.66933879      -1.01644713      -0.05683075       0.00000000
Si      -2.91595887      -1.13775876       2.17799176       0.00000000
Si       3.75573836       0.65031309      -0.57052802       0.00000000
Si      -0.27640872      -3.08996865       2.36007222       0.00000000
