10
Lattice="16.28999089631971 0.0 0.0 0.0 16.28999089631971 0.0 0.0 0.0 34.69518985606464" Properties=species:S:1:pos:R:3:initial_magmoms:R:1 pbc="T T T"
Si       0.96820334      -1.62566055      -1.40040273       0.00000000
Si      -1.43646849      -1.27671246       1.39839531       0.00000000
Si       1.36082329       1.38957677       1.44956380       0.00000000
Si      -0.88752807       0.45473439      -3.20455361       0.00000000
Si       1.29889197      -0.42687945      -3.41740872       0.00000000
Si       2.66356880      -2.60353296      -0.01072082       0.00000000
Si       0.09846831      -2.54071872       2.91852080       0.00000000
Si      -3.05597142      -2.40104826      -0.15928571       0.00000000
Si      -2.60727966       0.18164979       2.92660478       0.00000000
Si       2.15483210       3.32903159       0.41919727       0.00000000
