10
Lattice="16.28999089631971 0.0 0.0 0.0 16.28999089631971 0.0 0.0 0.0 34.69518985606464" Properties=species:S:1:pos:R:3:initial_magmoms:R:1 pbc="T T T"
Si       1.58817726       1.54026837      -0.75288604       0.00000000
Si       0.39693843      -1.64817333      -1.62415214       0.00000000
Si      -1.88417308       1.28811546      -0.66118660       0.00000000
Si       0.90831411      -0.77548545       2.11061366       0.00000000
Si      -0.90293841      -2.31300081       2.20893989       0.00000000
Si       0.33638850      -0.07496658      -3.39801410       0.00000000
Si       2.95380054      -1.39326741       1.07256770       0.00000000
Si       0.93836916       3.34322928       0.60459872       0.00000000
Si      -3.18017360       1.04821263       1.26061573       0.00000000
Si       0.38895633       2.26888749      -2.75261382       0.00000000
