10
Lattice="16.28999089631971 0.0 0.0 0.0 16.28999089631971 0.0 0.0 0.0 34.69518985606464" Properties=species:S:1:pos:R:3:initial_magmoms:R:1 pbc="T T T"
Si      -1.29600053      -0.23990283       1.92180234       0.00000000
Si       1.88417308      -1.28811546       0.66118660       0.00000000
Si      -1.15073456      -1.37854125      -1.55902923       0.00000000
Si      -0.74921131       3.08825820       0.05880838       0.00000000
Si       2.27312941       0.98077203      -2.09142721       0.00000000
Si      -3.31846915      -0.10529856       0.60938666       0.00000000
Si       0.53259178       2.82566340      -1.95844048       0.00000000
Si       3.47235034       0.25215291      -0.09169944       0.00000000
Si      -2.95080385       2.21671062       0.36894886       0.00000000
Si       2.82254224       2.05511382       1.26578532       0.00000000
