10
Lattice="16.28999089631971 0.0 0.0 0.0 16.28999089631971 0.0 0.0 0.0 34.69518985606464" Properties=species:S:1:pos:R:3:initial_magmoms:R:1 pbc="T T T"
Si      -1.35573851      -1.35663120       1.35668677       0.00000000
Si      -1.35238114       1.35907470      -1.36105836       0.00000000
Si       1.35876519       1.35848826       1.35696433       0.00000000
Si       1.35918873      -1.35446789      -1.36334825       0.00000000
Si      -2.71379440       0.00104256       2.71427561       0.00000000
Si       0.00138465      -2.71410400       2.71437970       0.00000000
Si      -2.71330044       2.71523349      -0.00048573       0.00000000
Si       2.71513575       2.71450044      -0.00114494       0.00000000
Si       0.00325800       2.71593396       2.71403274       0.00000000
Si       2.71648782       0.00096111       2.71448378       0.00000000
