10
Lattice="16.28999089631971 0.0 0.0 0.0 16.28999089631971 0.0 0.0 0.0 34.69518985606464" Properties=species:S:1:pos:R:3:initial_magmoms:R:1 pbc="T T T"
Si       1.29600053       0.23990283      -1.92180234       0.00000000
Si       0.13669189      -2.25901575       0.76579266       0.00000000
Si      -2.02246862       0.13460427      -1.31241568       0.00000000
Si       1.09196176       2.05003134       1.68903218       0.00000000
Si      -1.65480332       2.45661345      -1.55285348       0.00000000
Si       0.24177200      -1.68078591       3.09144723       0.00000000
Si       3.18017360      -1.04821263      -1.26061573       0.00000000
Si       0.14526597      -1.13863842      -3.48083156       0.00000000
Si       0.54678922       3.32816103      -1.86299396       0.00000000
Si       2.06807159       3.37784553       0.03566668       0.00000000
