10
Lattice="16.28999089631971 0.0 0.0 0.0 16.28999089631971 0.0 0.0 0.0 34.69518985606464" Properties=species:S:1:pos:R:3:initial_magmoms:R:1 pbc="T T T"
Si       1.74764007      -0.90582174      -1.28712287       0.00000000
Si       1.57090986       1.08913311       1.38819002       0.00000000
Si      -0.97648939       1.82474064      -1.27192637       0.00000000
Si      -1.83471664      -1.80356364       0.09915891       0.00000000
Si       0.39809502      -2.24262801      -2.65456515       0.00000000
Si      -2.33528786       0.49001949      -2.64929148       0.00000000
Si       3.02467833      -2.38420440       0.22274324       0.00000000
Si       2.73909834       2.79349065       0.01932523       0.00000000
Si      -0.96240017      -3.58562448      -1.26110147       0.00000000
Si      -2.36528261       3.12737049       0.20484052       0.00000000
