10
Lattice="16.28999089631971 0.0 0.0 0.0 16.28999089631971 0.0 0.0 0.0 34.69518985606464" Properties=species:S:1:pos:R:3:initial_magmoms:R:1 pbc="T T T"
Si       1.35141840       1.34257293       1.37639365       0.00000000
Si      -1.36022314       1.35016407      -1.36074611       0.00000000
Si       1.35812988      -1.36223496      -1.35894196       0.00000000
Si      -1.36248094      -1.37559276       1.37458950       0.00000000
Si       2.35310679      -0.40684275       2.66584110       0.00000000
Si      -2.71118966       2.71117963      -0.00156128       0.00000000
Si       0.00123804       2.71057093      -2.71701653       0.00000000
Si       2.71575477       2.71462941      -0.00142250       0.00000000
Si      -2.72127941      -2.71031391      -0.00277562       0.00000000
Si      -2.71407909      -0.00439830      -2.71784922       0.00000000
