10
Lattice="16.28999089631971 0.0 0.0 0.0 16.28999089631971 0.0 0.0 0.0 34.69518985606464" Properties=species:S:1:pos:R:3:initial_magmoms:R:1 pbc="T T T"
Si       1.62844614      -1.41905448      -0.62628322       0.00000000
Si      -1.34372138       0.13318704       1.98106175       0.00000000
Si       2.02694841       1.36746405      -0.43126145       0.00000000
Si      -1.58212715       0.87511509      -2.12997359       0.00000000
Si       1.13590170      -2.48774364      -2.58618090       0.00000000
Si      -2.08406278       2.41801757       2.01013634       0.00000000
Si      -2.74871120      -1.87624962       1.78600529       0.00000000
Si       1.41692049       3.66056078      -0.10949808       0.00000000
Si       3.60839790       1.07206119       1.29485990       0.00000000
Si       0.04310334       3.49372349       2.17889384       0.00000000
