10
Lattice="16.28999089631971 0.0 0.0 0.0 16.28999089631971 0.0 0.0 0.0 34.69518985606464" Properties=species:S:1:pos:R:3:initial_magmoms:R:1 pbc="T T T"
Si       1.34372138      -0.13318704      -1.98106175       0.00000000
Si       0.87031769      -0.45699966       2.18801868       0.00000000
Si      -0.74034140       2.28483053       0.02907459       0.00000000
Si      -1.40498982      -2.00943666      -0.19505647       0.00000000
Si       1.53662755      -2.71373481       1.83381528       0.00000000
Si       1.38682471       3.36053645       0.19783208       0.00000000
Si      -0.56934527       0.55076490       3.82303041       0.00000000
Si       2.91269272       0.55447902       2.86044653       0.00000000
Si      -3.19166616      -2.34835011       1.31081970       0.00000000
Si      -0.23840578       0.74192805      -4.11103534       0.00000000
