10
Lattice="16.28999089631971 0.0 0.0 0.0 16.28999089631971 0.0 0.0 0.0 34.69518985606464" Properties=species:S:1:pos:R:3:initial_magmoms:R:1 pbc="T T T"
Si       1.43966296      -1.00776456      -1.63501174       0.00000000
Si       1.12067218       2.14298601       0.02241311       0.00000000
Si       0.23678329      -1.34115570       2.00951182       0.00000000
Si      -2.20741459       0.67978170      -0.76468241       0.00000000
Si       3.48203800       0.00371412      -0.96258389       0.00000000
Si      -1.68255079       2.56008168      -2.11980789       0.00000000
Si      -1.47952852      -3.05126361       1.76702701       0.00000000
Si       0.56934527      -0.55076490      -3.82303041       0.00000000
Si       2.88786025       2.16281094      -1.50962325       0.00000000
Si      -0.20677712       0.20183310       3.93256319       0.00000000
