10
Lattice="16.28999089631971 0.0 0.0 0.0 16.28999089631971 0.0 0.0 0.0 34.26581377546328" Properties=species:S:1:pos:R:3:initial_magmoms:R:1 pbc="T T T"
Si       1.35741312      -1.35622749      -1.36282071       0.00000000
Si      -1.35808101       1.36217834      -1.36258085       0.00000000
Si      -1.34056926      -1.35968097       1.38362007       0.00000000
Si       1.35803214       1.36539887       1.39718934       0.00000000
Si      -2.71296918       2.71590503      -0.00976576       0.00000000
Si       2.71487511      -2.71416189      -0.00195315       0.00000000
Si      -2.71845891      -2.71113195      -0.00023986       0.00000000
Si       2.71070487       2.72018930      -0.00095944       0.00000000
Si       0.00000000      -2.71303788      -2.71961063       0.00000000
Si      -2.71495656       0.00185428      -2.71998755       0.00000000
