10
Lattice="16.28999089631971 0.0 0.0 0.0 16.28999089631971 0.0 0.0 0.0 34.26581377546328" Properties=species:S:1:pos:R:3:initial_magmoms:R:1 pbc="T T T"
Si      -0.58303539      -0.96995905       2.04481358       0.00000000
Si       2.31767604      -0.35439710      -0.12921646       0.00000000
Si      -0.65199096       2.29550698      -0.29907219       0.00000000
Si      -1.18928403      -1.49234875      -1.46962731       0.00000000
Si      -3.35197701      -1.27543111      -0.49572380       0.00000000
Si       0.91191420      -2.80592548       2.12694878       0.00000000
Si       3.18067137       1.76663584      -0.59876116       0.00000000
Si      -2.86350507      -1.58156908       1.85635150       0.00000000
Si      -0.30952629       2.76904099      -2.61705299       0.00000000
Si      -1.37924172      -0.50412989      -3.62326917       0.00000000
