10
Lattice="16.28999089631971 0.0 0.0 0.0 16.28999089631971 0.0 0.0 0.0 34.26581377546328" Properties=species:S:1:pos:R:3:initial_magmoms:R:1 pbc="T T T"
Si       1.55475018       0.81054153       1.51609178       0.00000000
Si       0.88611084      -0.58269330      -2.10488158       0.00000000
Si      -1.84217094       1.41204978      -0.43719776       0.00000000
Si      -0.63298053      -1.94584050       1.26416937       0.00000000
Si      -1.95548418       1.73472210       1.94756715       0.00000000
Si      -3.30357942      -0.44689986      -0.61229617       0.00000000
Si       1.71717777       3.07320624       0.79578970       0.00000000
Si      -2.93172759      -1.58511474       1.54442962       0.00000000
Si       0.02275713       1.34232858       3.44539523       0.00000000
Si      -0.93076173      -0.09699066      -3.60959711       0.00000000
