10
Lattice="16.28999089631971 0.0 0.0 0.0 16.28999089631971 0.0 0.0 0.0 34.26581377546328" Properties=species:S:1:pos:R:3:initial_magmoms:R:1 pbc="T T T"
Si      -2.29874706       0.36072576       0.28026025       0.00000000
Si      -0.15076395      -1.81182430      -1.53216245       0.00000000
Si       0.63298053       1.94584050      -1.26416937       0.00000000
Si       1.10065014      -1.42799769       1.63115644       0.00000000
Si       2.12351553      -2.24559998      -1.57828426       0.00000000
Si       2.18773071       2.75638203       0.25192240       0.00000000
Si      -2.67059889       1.49894064      -1.87646554       0.00000000
Si      -2.43709803       0.88456329       2.56310045       0.00000000
Si      -1.47323502      -3.33090494      -0.29564561       0.00000000
Si      -3.25290123      -1.79424087       0.29211623       0.00000000
