10
Lattice="16.28999089631971 0.0 0.0 0.0 16.28999089631971 0.0 0.0 0.0 34.26581377546328" Properties=species:S:1:pos:R:3:initial_magmoms:R:1 pbc="T T T"
Si       2.27427948      -0.43377568      -0.04612181       0.00000000
Si      -1.32247107      -1.51908064       1.23651685       0.00000000
Si       0.15076395       1.81182430       1.53216245       0.00000000
Si      -0.98225442       0.23904272      -2.16388735       0.00000000
Si       1.94220783      -2.62266298      -0.82656042       0.00000000
Si       1.25141409       0.38382661       3.16331890       0.00000000
Si       2.87272521       1.12832685      -1.69053913       0.00000000
Si      -2.14798311       2.17255006       1.81242270       0.00000000
Si       0.14776659      -1.76442433       3.12401599       0.00000000
Si      -3.10213728       0.01758343       1.82427868       0.00000000
