10
Lattice="16.28999089631971 0.0 0.0 0.0 16.28999089631971 0.0 0.0 0.0 34.26581377546328" Properties=species:S:1:pos:R:3:initial_magmoms:R:1 pbc="T T T"
Si       1.35584928      -1.35661491       1.35888014       0.00000000
Si      -1.36013355       1.35824391       1.36011371       0.00000000
Si      -1.34987085      -1.35793440      -1.37944649       0.00000000
Si       1.36467846       1.34454402      -1.39339954       0.00000000
Si       2.71500543       2.71283886      -0.00298113       0.00000000
Si       2.71353933       0.00017919       2.71752041       0.00000000
Si      -0.00140094      -2.71443039       2.71738335       0.00000000
Si      -2.71503801      -2.71717689       0.00188462       0.00000000
Si       2.71687878      -2.71536707       0.00274127       0.00000000
Si      -0.00221544       2.71591767       2.71817146       0.00000000
