10
Lattice="16.28999089631971 0.0 0.0 0.0 16.28999089631971 0.0 0.0 0.0 34.26581377546328" Properties=species:S:1:pos:R:3:initial_magmoms:R:1 pbc="T T T"
Si       1.27304395      -1.43829460      -1.30820097       0.00000000
Si      -1.47061300       1.26732942      -1.31289539       0.00000000
Si       0.84345385       1.71155772       1.42062717       0.00000000
Si      -0.69519271      -2.01001495       1.09462203       0.00000000
Si      -0.62690503      -1.07367390       3.17006927       0.00000000
Si       1.52869270       0.01371618       3.08478161       0.00000000
Si       2.59436821       2.56907961       0.06726383       0.00000000
Si       2.60557573      -0.07946262      -2.67222098       0.00000000
Si      -0.11175007       2.63544507      -2.66742376       0.00000000
Si      -2.66698318       2.68411959       0.12548148       0.00000000
