10
Lattice="16.28999089631971 0.0 0.0 0.0 16.28999089631971 0.0 0.0 0.0 34.26581377546328" Properties=species:S:1:pos:R:3:initial_magmoms:R:1 pbc="T T T"
Si       1.88372673       0.90709236      -1.27924634       0.00000000
Si      -0.96001857      -1.84098177      -1.30926321       0.00000000
Si       0.21170484      -0.91248435       2.28611358       0.00000000
Si      -1.88647974       1.90413810      -0.09772616       0.00000000
Si      -2.15917434      -0.54305973      -2.80243115       0.00000000
Si       0.56904228       2.18326725      -2.78478424       0.00000000
Si       2.65499307       2.60271846       0.22845031       0.00000000
Si      -2.52216441      -2.89725795       0.25976928       0.00000000
Si      -3.51093483       0.75282606      -1.40870266       0.00000000
Si      -0.79115643       3.56596245      -1.44762864       0.00000000
