10
Lattice="16.28999089631971 0.0 0.0 0.0 16.28999089631971 0.0 0.0 0.0 34.26581377546328" Properties=species:S:1:pos:R:3:initial_magmoms:R:1 pbc="T T T"
Si       1.23155658      -1.39245291       1.42270025       0.00000000
Si      -1.84583619      -0.95228082      -1.21412447       0.00000000
Si       1.89508086       0.54902187      -1.40495196       0.00000000
Si      -1.45810161       1.34001540       1.40811329       0.00000000
Si       2.62840779       2.59869483      -0.10809157       0.00000000
Si       2.55461409      -2.75913504      -0.00943681       0.00000000
Si      -0.85028913      -1.52550963      -3.33391276       0.00000000
Si       1.41721371      -0.82604961      -3.42786967       0.00000000
Si       2.59397073      -0.01966203       2.77988080       0.00000000
Si      -0.12188178       2.69552259       2.78286193       0.00000000
