10
Lattice="16.28999089631971 0.0 0.0 0.0 16.28999089631971 0.0 0.0 0.0 34.26581377546328" Properties=species:S:1:pos:R:3:initial_magmoms:R:1 pbc="T T T"
Si      -1.33621983      -1.35550719      -1.37474864       0.00000000
Si       1.35492075      -1.35870003       1.35579621       0.00000000
Si      -1.35721764       1.35703845       1.35579621       0.00000000
Si       1.34708526       1.34736219      -1.39687067       0.00000000
Si      -0.28136088       2.49367320      -2.81987588       0.00000000
Si       2.71427238      -0.00079821       2.71303159       0.00000000
Si      -0.00130320       2.71520091       2.71320292       0.00000000
Si      -2.71561142      -0.00013032       2.71333998       0.00000000
Si      -0.00066789      -2.71547784       2.71364837       0.00000000
Si       2.71435383       2.71538010      -0.00431749       0.00000000
