10
Lattice="16.28999089631971 0.0 0.0 0.0 16.28999089631971 0.0 0.0 0.0 34.26581377546328" Properties=species:S:1:pos:R:3:initial_magmoms:R:1 pbc="T T T"
Si       1.07080686      -1.55451723       1.49395605       0.00000000
Si      -0.25145244      -1.03977930      -2.17039786       0.00000000
Si       1.67123997       1.74459384      -0.21220830       0.00000000
Si      -1.93683213       1.41780015       1.05473660       0.00000000
Si       0.06563241      -0.64208827       3.41949027       0.00000000
Si       0.24003315       0.79558731      -3.67370848       0.00000000
Si       1.77644079       2.21702013      -2.47704280       0.00000000
Si      -2.13283341       0.20759976       3.17664831       0.00000000
Si      -0.08938323      -3.73233941       0.88477807       0.00000000
Si       1.29925782       3.51733680       1.34846332       0.00000000
