10
Lattice="16.28999089631971 0.0 0.0 0.0 16.28999089631971 0.0 0.0 0.0 34.26581377546328" Properties=species:S:1:pos:R:3:initial_magmoms:R:1 pbc="T T T"
Si       1.00517445      -0.91242896      -1.92553422       0.00000000
Si       0.59790816      -1.44290860       1.77380511       0.00000000
Si      -2.19846582       0.84968803      -0.24284196       0.00000000
Si       0.50459904       2.11985191       0.93775305       0.00000000
Si      -0.06563241       0.64208827      -3.41949027       0.00000000
Si       0.64277082       1.61883667       3.25549399       0.00000000
Si       3.35857446      -0.78263513      -1.33002830       0.00000000
Si      -2.00246454       2.05988842      -2.36475366       0.00000000
Si      -0.22022451      -0.50219626       3.72503870       0.00000000
Si       2.26792638       3.10539691      -0.18537816       0.00000000
