10
Lattice="16.28999089631971 0.0 0.0 0.0 16.28999089631971 0.0 0.0 0.0 34.26581377546328" Properties=species:S:1:pos:R:3:initial_magmoms:R:1 pbc="T T T"
Si      -2.23133904      -0.15333777       0.85366470       0.00000000
Si       0.73099746      -2.24717292       0.59996047       0.00000000
Si       0.97712307       2.13328953       0.82162614       0.00000000
Si       0.09220140      -0.49474359      -3.11716282       0.00000000
Si       3.13690014       0.76299102       0.63347245       0.00000000
Si      -2.84835537       1.33113735      -1.05542192       0.00000000
Si       3.02321223      -0.46240794      -1.32793809       0.00000000
Si      -1.95971958       0.65647071       3.23753869       0.00000000
Si       3.03306768      -2.35193391       0.29465190       0.00000000
Si      -1.64178765       1.28238138      -3.30915428       0.00000000
