10
Lattice="16.28999089631971 0.0 0.0 0.0 16.28999089631971 0.0 0.0 0.0 34.26581377546328" Properties=species:S:1:pos:R:3:initial_magmoms:R:1 pbc="T T T"
Si      -1.01071305      -1.85720661      -0.96999720       0.00000000
Si      -1.57094244       1.72274895       0.35938006       0.00000000
Si       1.84777470       1.05357204      -1.07276043       0.00000000
Si       1.06653888      -0.69967179       2.03874853       0.00000000
Si       1.55870865       2.99077884       0.26532034       0.00000000
Si       3.28518801      -0.75820176      -0.75268329       0.00000000
Si      -1.34306163       1.84345785       2.75905060       0.00000000
Si      -0.59204376       3.55043808      -0.71533353       0.00000000
Si       0.52274610      -3.60968481      -0.57302752       0.00000000
Si      -1.05029775      -1.46535066      -3.27649894       0.00000000
