10
Lattice="16.28999089631971 0.0 0.0 0.0 16.28999089631971 0.0 0.0 0.0 34.26581377546328" Properties=species:S:1:pos:R:3:initial_magmoms:R:1 pbc="T T T"
Si       1.64310714       1.17144648       1.11771789       0.00000000
Si      -1.12550868      -1.60981038       1.22602876       0.00000000
Si       1.23553134      -0.71690661      -1.84918724       0.00000000
Si      -1.76252913       1.73757285      -0.06343874       0.00000000
Si      -0.94609062      -0.70929918      -2.80057809       0.00000000
Si       0.21931227       2.45920356       2.53749869       0.00000000
Si      -2.41610022       1.15751853      -2.31739558       0.00000000
Si      -2.51616969      -0.26228529       2.54595892       0.00000000
Si      -2.74667319      -2.67314013      -0.03261285       0.00000000
Si       2.91688740       2.47436955      -0.48955325       0.00000000
