10
Lattice="16.28999089631971 0.0 0.0 0.0 16.28999089631971 0.0 0.0 0.0 34.26581377546328" Properties=species:S:1:pos:R:3:initial_magmoms:R:1 pbc="T T T"
Si      -1.35547461       1.35855342      -1.35959972       0.00000000
Si       1.36187658       1.36171368       1.35069060       0.00000000
Si       1.36011726      -1.35580041      -1.35857174       0.00000000
Si      -1.35220032      -1.36342413       1.36912562       0.00000000
Si       2.51647920       0.03002247       2.89231043       0.00000000
Si       2.71275741      -2.71059084       0.00260420       0.00000000
Si      -2.71158453      -2.71555929      -0.00116504       0.00000000
Si      -2.71362078       2.71498914       0.00215875       0.00000000
Si       0.00133578      -2.71360449      -2.71519034       0.00000000
Si      -2.71362078       0.00078192      -2.71580712       0.00000000
