10
Lattice="16.28999089631971 0.0 0.0 0.0 16.28999089631971 0.0 0.0 0.0 34.26581377546328" Properties=species:S:1:pos:R:3:initial_magmoms:R:1 pbc="T T T"
Si      -1.83591558      -1.40568039       0.44148099       0.00000000
Si       0.09009999       2.18289258       0.92504043       0.00000000
Si      -0.22788081      -0.12070890      -2.39967055       0.00000000
Si       2.18600397      -0.78947856       0.73510491       0.00000000
Si       3.37452237       1.00605411      -0.12914792       0.00000000
Si       2.40960051      -2.54312964      -0.72030207       0.00000000
Si       1.34306163      -1.84345785      -2.75905060       0.00000000
Si       2.36200113       2.75266791       1.06251495       0.00000000
Si      -2.72197755      -0.64860264       2.58456898       0.00000000
Si      -0.99136053      -3.64265577       0.63953751       0.00000000
