10
Lattice="16.28999089631971 0.0 0.0 0.0 16.28999089631971 0.0 0.0 0.0 34.26581377546328" Properties=species:S:1:pos:R:3:initial_magmoms:R:1 pbc="T T T"
Si      -1.35738054       1.35660037       1.35774936       0.00000000
Si       1.35830907       1.35763782      -1.35678992       0.00000000
Si      -1.35733167      -1.35900954      -1.35730391       0.00000000
Si       1.35795069      -1.35873261       1.35757803       0.00000000
Si       2.71401174      -0.00203625       2.71399103       0.00000000
Si       0.00353493       2.71326633      -2.71477915       0.00000000
Si       2.71181259      -0.00127062      -2.71625258       0.00000000
Si       2.71409319       2.71427142       0.00075385       0.00000000
Si      -2.71474479       2.71420300      -0.00013706       0.00000000
Si       0.00042354      -2.71575477       2.71378544       0.00000000
