10
Lattice="16.28999089631971 0.0 0.0 0.0 16.28999089631971 0.0 0.0 0.0 34.26581377546328" Properties=species:S:1:pos:R:3:initial_magmoms:R:1 pbc="T T T"
Si      -0.81813267       0.94071233       1.95123359       0.00000000
Si      -0.04860936      -2.35669059      -0.04386027       0.00000000
Si      -0.59790816       1.44290860      -1.77380511       0.00000000
Si       2.32093404      -0.04074129       0.55068620       0.00000000
Si       0.04486266       3.06174527       1.48168888       0.00000000
Si       0.68295825      -2.57150682       2.25321838       0.00000000
Si       3.04505712      -0.97342524      -1.46935318       0.00000000
Si      -0.08874792      -0.68478273       3.52506330       0.00000000
Si      -0.09330912       3.56276051      -0.83605206       0.00000000
Si       1.69916103      -2.89968516      -1.59435494       0.00000000
