10
Lattice="16.28999089631971 0.0 0.0 0.0 16.28999089631971 0.0 0.0 0.0 34.26581377546328" Properties=species:S:1:pos:R:3:initial_magmoms:R:1 pbc="T T T"
Si       1.31062728      -1.83597650       0.73753779       0.00000000
Si      -1.36138788      -0.51714397      -1.87523197       0.00000000
Si       0.76102630       2.30050638       0.16965014       0.00000000
Si      -1.93621311       0.31731291       2.59988581       0.00000000
Si       2.92883516       1.62313560       0.67239844       0.00000000
Si      -1.69800444       1.69179795      -2.60512848       0.00000000
Si      -0.34305111      -3.35985227       1.23562594       0.00000000
Si      -2.42362620       2.34934380       1.28798413       0.00000000
Si       0.22475313      -1.08017850      -3.54250461       0.00000000
Si       1.86117390       0.58028238      -3.26423178       0.00000000
