10
Lattice="16.28999089631971 0.0 0.0 0.0 16.28999089631971 0.0 0.0 0.0 34.26581377546328" Properties=species:S:1:pos:R:3:initial_magmoms:R:1 pbc="T T T"
Si       1.35347094       1.35565380      -1.35783160       0.00000000
Si      -1.35596331       1.35518139       1.35631020       0.00000000
Si       1.35728731      -1.35734796       1.35548782       0.00000000
Si      -1.35744570      -1.36102950      -1.35691670       0.00000000
Si       2.59452852      -0.02746494      -2.81022662       0.00000000
Si       2.71748055       2.70817992      -0.00339232       0.00000000
Si       0.00065160       2.71313208       2.71316865       0.00000000
Si      -2.71459818       2.71220355      -0.00777834       0.00000000
Si      -2.71456560      -0.00146610       2.71327145       0.00000000
Si       2.71510058      -0.00120546       2.71347704       0.00000000
