10
Lattice="16.28999089631971 0.0 0.0 0.0 16.28999089631971 0.0 0.0 0.0 34.26581377546328" Properties=species:S:1:pos:R:3:initial_magmoms:R:1 pbc="T T T"
Si      -1.44466236      -1.42265457       1.16524391       0.00000000
Si       1.19637018      -1.41679017      -1.43837687       0.00000000
Si       1.74438207       0.82482786       1.47123780       0.00000000
Si      -1.51806510       1.31989725      -1.38941099       0.00000000
Si       2.59213519       2.59509474       0.03433436       0.00000000
Si       2.55523311      -0.04867452      -2.79290524       0.00000000
Si       2.66698318      -2.68411959      -0.12548148       0.00000000
Si      -0.16320951       2.67076179      -2.78944440       0.00000000
Si       3.51043703      -0.97256187       1.29514569       0.00000000
Si      -0.16232985      -2.76211611      -2.79314511       0.00000000
