10
Lattice="16.28999089631971 0.0 0.0 0.0 16.28999089631971 0.0 0.0 0.0 34.26581377546328" Properties=species:S:1:pos:R:3:initial_magmoms:R:1 pbc="T T T"
Si       2.16712386       0.36393489       0.67476278       0.00000000
Si       0.09860337       0.71975736      -2.18345314       0.00000000
Si      -0.25731684      -2.21439744       0.66078232       0.00000000
Si      -2.12004576       0.77828733       0.60797867       0.00000000
Si      -0.90051120      -1.14618069      -3.12692858       0.00000000
Si       0.20240325      -1.83448206       2.95697005       0.00000000
Si       2.40342660      -1.05166611       2.51528347       0.00000000
Si      -2.52566676      -2.63274093       0.31394356       0.00000000
Si       3.59856104      -0.71565228      -0.90424107       0.00000000
Si      -3.18658464       1.47795912      -1.43076985       0.00000000
