10
Lattice="16.28999089631971 0.0 0.0 0.0 16.28999089631971 0.0 0.0 0.0 34.26581377546328" Properties=species:S:1:pos:R:3:initial_magmoms:R:1 pbc="T T T"
Si       1.34529336       1.36267479       1.38863659       0.00000000
Si      -1.37243250      -1.35571896       1.38209181       0.00000000
Si      -1.29037977       1.44181161      -1.39828927       0.00000000
Si       1.41939657      -1.41770241      -1.46014938       0.00000000
Si       2.68977449       2.70099603       0.00810730       0.00000000
Si       2.69563662      -2.71226871       0.03203855       0.00000000
Si      -2.71344159      -2.73004110       0.01020437       0.00000000
Si      -2.71417464       2.72956869       0.02149153       0.00000000
Si       2.69921240       0.00384444       2.74556357       0.00000000
Si      -0.01379763      -2.71274112       2.74618035       0.00000000
