10
Lattice="16.28999089631971 0.0 0.0 0.0 16.28999089631971 0.0 0.0 0.0 34.26581377546328" Properties=species:S:1:pos:R:3:initial_magmoms:R:1 pbc="T T T"
Si       1.35264015      -1.35479043       1.36117595       0.00000000
Si       1.35578412       1.35746199      -1.35692698       0.00000000
Si      -1.35878148      -1.35780408      -1.35661859       0.00000000
Si      -1.36011726       1.35580041       1.35857174       0.00000000
Si       0.00175932       2.71751409       2.70926235       0.00000000
Si       2.71269225       2.71498914      -0.00010280       0.00000000
Si       2.71419093      -0.00123804      -2.71457355       0.00000000
Si       2.71334385      -2.71554300       0.00171329       0.00000000
Si      -0.00149868       2.71498914      -2.71429942       0.00000000
Si      -2.71559187       2.71435383      -0.00102797       0.00000000
