10
Lattice="16.28999089631971 0.0 0.0 0.0 16.28999089631971 0.0 0.0 0.0 34.26581377546328" Properties=species:S:1:pos:R:3:initial_magmoms:R:1 pbc="T T T"
Si      -1.18851840      -1.79553267       0.86425284       0.00000000
Si      -1.01252124       1.74661380       1.19166287       0.00000000
Si       2.35271583       0.09501957       0.25017485       0.00000000
Si      -0.47275209       0.14126688      -2.36458233       0.00000000
Si      -3.37452237      -1.00605411       0.12914792       0.00000000
Si       2.98323657       1.34076474      -1.56235065       0.00000000
Si      -3.28442238       1.17683847       1.05418835       0.00000000
Si       1.30329774       1.36586763      -3.15691119       0.00000000
Si      -0.96492186      -3.54918375      -0.59115415       0.00000000
Si      -0.73244727       3.69652680      -0.11365977       0.00000000
