10
Lattice="16.28999089631971 0.0 0.0 0.0 16.28999089631971 0.0 0.0 0.0 34.26581377546328" Properties=species:S:1:pos:R:3:initial_magmoms:R:1 pbc="T T T"
Si       1.35557235      -1.35422785       1.35812629       0.00000000
Si      -1.35045729      -1.35277277      -1.37170241       0.00000000
Si      -1.36001952       1.35978006       1.35774936       0.00000000
Si       1.36516716       1.35924249      -1.38133111       0.00000000
Si       2.71332756      -2.71166828      -0.00167903       0.00000000
Si      -2.71534915      -2.71147280      -0.00188462       0.00000000
Si      -0.00232947      -2.71184747       2.71584139       0.00000000
Si       2.71363707       0.00274649       2.71549873       0.00000000
Si      -2.71473013       2.71652529      -0.00548253       0.00000000
Si       2.71503801       2.71717689      -0.00188462       0.00000000
