10
Lattice="16.28999089631971 0.0 0.0 0.0 16.28999089631971 0.0 0.0 0.0 34.26581377546328" Properties=species:S:1:pos:R:3:initial_magmoms:R:1 pbc="T T T"
Si       1.34448113       1.33832124      -1.38052929       0.00000000
Si       1.35391904      -1.35883035       1.35692698       0.00000000
Si      -1.35985662       1.35557235       1.35634446       0.00000000
Si      -1.34529336      -1.36267479      -1.38863659       0.00000000
Si       2.56364105      -0.21362706      -2.79235014       0.00000000
Si      -2.63567313       0.07913682      -2.78692586       0.00000000
Si       2.71228893      -0.00184077       2.71450502       0.00000000
Si       2.71357747       2.71386513      -0.00335805       0.00000000
Si      -0.00302994       2.71322982       2.71505327       0.00000000
Si      -0.00247608      -2.71746522       2.71440222       0.00000000
