10
Lattice="16.28999089631971 0.0 0.0 0.0 16.28999089631971 0.0 0.0 0.0 34.26581377546328" Properties=species:S:1:pos:R:3:initial_magmoms:R:1 pbc="T T T"
Si       1.26268677      -1.37933946      -1.38958232       0.00000000
Si       2.02859370       0.78371094       1.01577635       0.00000000
Si      -1.60230069      -1.12304889       1.41373973       0.00000000
Si      -1.45155303       1.36390210      -1.37536200       0.00000000
Si       2.50035210      -2.72453508       0.15752003       0.00000000
Si       2.61003150       0.00219414      -2.74623518       0.00000000
Si      -3.41575236       0.79839149       1.51852465       0.00000000
Si      -2.74139523      -2.69961138      -0.01151332       0.00000000
Si      -0.10552662       2.71572938      -2.74650931       0.00000000
Si      -0.10067220      -2.71676475      -2.74781141       0.00000000
