10
Lattice="16.28999089631971 0.0 0.0 0.0 16.28999089631971 0.0 0.0 0.0 34.26581377546328" Properties=species:S:1:pos:R:3:initial_magmoms:R:1 pbc="T T T"
Si       1.31781213      -1.76230107       0.82656042       0.00000000
Si      -1.36145304       0.42404566       1.89414671       0.00000000
Si       1.74834054       1.55332222      -0.48602657       0.00000000
Si      -1.44995661      -0.78252273      -1.81557516       0.00000000
Si       2.47539582      -2.39536305      -1.13964734       0.00000000
Si      -2.11440942      -1.78554690       2.46134904       0.00000000
Si      -0.19751625      -3.09624030       2.04967933       0.00000000
Si      -2.76758955       2.29385096       1.40455649       0.00000000
Si       3.10972842       2.07046619       1.38920540       0.00000000
Si       2.76667731      -1.28938608       2.62483133       0.00000000
