10
Lattice="16.28999089631971 0.0 0.0 0.0 16.28999089631971 0.0 0.0 0.0 34.26581377546328" Properties=species:S:1:pos:R:3:initial_magmoms:R:1 pbc="T T T"
Si      -1.21783130      -1.22590395      -1.54614291       0.00000000
Si      -0.80257246       2.17002348      -0.22629156       0.00000000
Si      -0.95982390      -1.40001147       1.67032229       0.00000000
Si       2.40420852       0.18231768      -0.02919449       0.00000000
Si       1.20798495      -2.07738225       2.17307059       0.00000000
Si       1.81271862      -3.05051427      -0.00448882       0.00000000
Si       2.66939343      -0.21843261       2.34816900       0.00000000
Si       0.14032369      -3.12023547      -1.76355962       0.00000000
Si      -0.94134029       2.35947618      -2.57082838       0.00000000
Si      -1.45413404       0.18969705      -3.38666360       0.00000000
