10
Lattice="16.28999089631971 0.0 0.0 0.0 16.28999089631971 0.0 0.0 0.0 34.26581377546328" Properties=species:S:1:pos:R:3:initial_magmoms:R:1 pbc="T T T"
Si      -0.28999458       2.27074455      -0.22707967       0.00000000
Si       0.11331324      -0.32267232      -2.38476491       0.00000000
Si       1.97824131      -0.39239352       1.49782809       0.00000000
Si       1.95548418      -1.73472210      -1.94756715       0.00000000
Si       0.58358925      -1.64729367       2.99761417       0.00000000
Si      -0.97624341      -3.31983684      -0.40313752       0.00000000
Si      -1.11459438      -2.79599931       1.87970268       0.00000000
Si       1.97750826       2.97020457      -0.32103659       0.00000000
Si      -1.34809524      -2.18162196      -2.55986331       0.00000000
Si      -1.28554164       2.84397336       1.89270861       0.00000000
