10
Lattice="16.28999089631971 0.0 0.0 0.0 16.28999089631971 0.0 0.0 0.0 34.26581377546328" Properties=species:S:1:pos:R:3:initial_magmoms:R:1 pbc="T T T"
Si       1.34056926       1.35968097      -1.38362007       0.00000000
Si      -1.37788965      -1.35145098      -1.38385993       0.00000000
Si      -1.31373963       1.39600236       1.44039855       0.00000000
Si       1.42923573      -1.33807689       1.53346456       0.00000000
Si       2.70138699      -2.71169856       0.00147343       0.00000000
Si      -2.70493169       2.71675402      -0.02936582       0.00000000
Si       2.69860140       2.72507984       0.01356927       0.00000000
Si       2.69798238       0.00345348      -2.74644077       0.00000000
Si      -2.74975200      -2.69601129      -0.01233570       0.00000000
Si      -0.01733256      -2.71151937      -2.74517294       0.00000000
