10
Lattice="16.28999089631971 0.0 0.0 0.0 16.28999089631971 0.0 0.0 0.0 34.26581377546328" Properties=species:S:1:pos:R:3:initial_magmoms:R:1 pbc="T T T"
Si       1.77655482      -1.15092108       1.01940853       0.00000000
Si      -0.81120942       1.74394224       1.35199270       0.00000000
Si       0.63726480       1.07556354      -1.99619036       0.00000000
Si      -1.47559707      -1.76044401      -0.58964645       0.00000000
Si      -2.25811003       2.64559374      -0.32627926       0.00000000
Si       2.11276413      -2.78155008      -0.68219847       0.00000000
Si      -2.11456906       0.70687197       2.97153303       0.00000000
Si      -0.06647949      -3.51546345      -1.29216456       0.00000000
Si      -2.22615882      -2.70536175       1.41822856       0.00000000
Si      -1.08936117       2.73256605      -2.41618668       0.00000000
