10
Lattice="10.86 0.0 0.0 0.0 10.86 0.0 0.0 0.0 10.86" Properties=species:S:1:pos:R:3:initial_magmoms:R:1 pbc="T T T"
Si      -1.36901160      -1.26879552       1.27072860       0.00000000
Si       1.34598840      -1.26879552      -1.44427140       0.00000000
Si      -1.36901160       1.44620448      -1.44427140       0.00000000
Si       1.64387820       1.02650892       1.61076606       0.00000000
Si      -0.11312862      -2.50000458       2.65781124       0.00000000
Si       1.29801978      -0.76169868       3.32881806       0.00000000
Si       2.64909066       2.52098610      -0.21169398       0.00000000
Si       2.68212678      -2.56767324      -0.05741682       0.00000000
Si       0.11229240       2.70258702       2.63927322       0.00000000
Si      -2.72651160      -2.62629552      -0.08677140       0.00000000
