10
Lattice="10.86 0.0 0.0 0.0 10.86 0.0 0.0 0.0 10.86" Properties=species:S:1:pos:R:3:initial_magmoms:R:1 pbc="T T T"
Si      -1.53158580       1.67607810       1.02850716       0.00000000
Si      -0.34585842      -1.78820760       1.71805200       0.00000000
Si      -1.64387820      -1.02650892      -1.61076606       0.00000000
Si       1.00521246       1.49447718      -1.82246004       0.00000000
Si      -3.01288980      -2.29530444      -0.34003746       0.00000000
Si      -0.29788980      -2.29530444      -3.05503746       0.00000000
Si      -3.01288980       0.41969556       2.37496254       0.00000000
Si       2.41711020       0.41969556      -3.05503746       0.00000000
Si      -0.29788980       3.13469556       2.37496254       0.00000000
Si       2.41711020       3.13469556      -0.34003746       0.00000000
