10
Lattice="16.28999089631971 0.0 0.0 0.0 16.28999089631971 0.0 0.0 0.0 34.40246978574605" Properties=species:S:1:pos:R:3:initial_magmoms:R:1 pbc="T T T"
Si       0.63944766      -1.61391546      -1.60497932       0.00000000
Si      -1.64190331       0.76066155      -1.52888101       0.00000000
Si       1.79072712       1.55776383      -0.14476567       0.00000000
Si      -0.61709778      -0.81546111       2.19092251       0.00000000
Si       1.49095854      -0.23381037      -3.29379751       0.00000000
Si      -1.43982912      -2.80453527      -1.94205491       0.00000000
Si      -0.47951244      -3.23278308       1.83987951       0.00000000
Si       3.36284244       0.92206287       1.48016709       0.00000000
Si      -3.04058456      -1.06618050      -1.99730530       0.00000000
Si      -3.17404853       2.09049570      -0.36655852       0.00000000
