10
Lattice="16.28999089631971 0.0 0.0 0.0 16.28999089631971 0.0 0.0 0.0 34.40246978574605" Properties=species:S:1:pos:R:3:initial_magmoms:R:1 pbc="T T T"
Si       1.99661643       0.34258359       1.03341637       0.00000000
Si      -1.57009536      -1.02119404       1.42102921       0.00000000
Si       0.22566537      -1.61364083      -1.72507841       0.00000000
Si      -1.00870938       2.02827279       0.89546239       0.00000000
Si      -3.16211706      -0.24839481      -0.13905486       0.00000000
Si      -2.65002462       2.02361385      -0.77784028       0.00000000
Si      -1.85577309       0.90064641       2.82238020       0.00000000
Si       3.41542656      -1.00200767      -0.26572483       0.00000000
Si       2.08397970       2.28394434      -1.86729830       0.00000000
Si       2.61659754       2.55077454       0.48944421       0.00000000
