10
Lattice="16.28999089631971 0.0 0.0 0.0 16.28999089631971 0.0 0.0 0.0 34.40246978574605" Properties=species:S:1:pos:R:3:initial_magmoms:R:1 pbc="T T T"
Si      -1.00755279       1.93510539       0.86539461       0.00000000
Si      -0.61998111      -2.20819095       0.54397216       0.00000000
Si       2.10655764      -0.11088603       1.18509694       0.00000000
Si      -0.53261784      -0.26683020      -2.35674251       0.00000000
Si       1.29577176      -1.62784341       2.89930416       0.00000000
Si      -0.55923570       3.53864412      -0.74852936       0.00000000
Si      -3.62530692      -0.52250175       0.40601818       0.00000000
Si      -2.61659754      -2.55077454      -0.48944421       0.00000000
Si       3.61268217       0.58753143      -0.50623263       0.00000000
Si       0.29188422       2.42520633       2.79155557       0.00000000
