10
Lattice="16.28999089631971 0.0 0.0 0.0 16.28999089631971 0.0 0.0 0.0 34.40246978574605" Properties=species:S:1:pos:R:3:initial_magmoms:R:1 pbc="T T T"
Si      -1.64131524      -0.00465894      -1.67330266       0.00000000
Si       0.27406296       2.22350355       0.82476527       0.00000000
Si      -0.84706371      -1.12762638       1.92691781       0.00000000
Si       1.00870938      -2.02827279      -0.89546239       0.00000000
Si      -0.56138598      -3.04946682       0.52556682       0.00000000
Si      -2.87844137       0.08744472       1.52437429       0.00000000
Si      -2.15340768      -2.27666759      -1.03451725       0.00000000
Si      -2.96500969       1.48734216      -0.42432030       0.00000000
Si       3.00532581      -1.68568920       0.13795398       0.00000000
Si       2.61775413       2.45760714       0.45937644       0.00000000
