10
Lattice="16.28999089631971 0.0 0.0 0.0 16.28999089631971 0.0 0.0 0.0 34.40246978574605" Properties=species:S:1:pos:R:3:initial_magmoms:R:1 pbc="T T T"
Si      -0.17378172       1.01253101      -2.10718685       0.00000000
Si       0.39638457      -2.31702185      -0.25151660       0.00000000
Si       1.74197115       1.59287855       0.24814515       0.00000000
Si      -1.82099394      -0.32250127       1.48938696       0.00000000
Si       1.49398848      -2.59887143       1.84184046       0.00000000
Si       1.24502841      -0.33206025      -3.40632805       0.00000000
Si       1.45516941      -2.46042272      -2.35072207       0.00000000
Si       0.62004627       3.46609823       1.32817689       0.00000000
Si      -1.76868675      -3.34154882      -0.10107451       0.00000000
Si      -2.97426078       1.69009727       1.78892943       0.00000000
