10
Lattice="16.28999089631971 0.0 0.0 0.0 16.28999089631971 0.0 0.0 0.0 34.40246978574605" Properties=species:S:1:pos:R:3:initial_magmoms:R:1 pbc="T T T"
Si      -0.13760163      -0.58257927      -2.26561242       0.00000000
Si      -1.88861373      -0.81026460       1.15056992       0.00000000
Si       0.81132345       1.94383683       1.10238235       0.00000000
Si       1.92024891      -1.55214378      -0.11201382       0.00000000
Si       2.10062808       0.59991183       2.51944839       0.00000000
Si      -0.59170167      -2.15871822       2.50313817       0.00000000
Si       2.25425907      -0.83442267      -2.57485639       0.00000000
Si      -1.91568771       0.87974145      -2.91045267       0.00000000
Si      -1.34004798      -2.61042363      -2.11410386       0.00000000
Si      -3.04592049      -2.06933499      -0.43970032       0.00000000
