10
Lattice="16.28999089631971 0.0 0.0 0.0 16.28999089631971 0.0 0.0 0.0 34.40246978574605" Properties=species:S:1:pos:R:3:initial_magmoms:R:1 pbc="T T T"
Si       1.35237951       1.35210258       1.37856622       0.00000000
Si      -1.36133901      -1.36524861       1.38076798       0.00000000
Si      -1.28350539       1.44581895      -1.41105249       0.00000000
Si       1.41791418      -1.36275624      -1.37376019       0.00000000
Si      -2.46555666       0.09694179      -2.89812557       0.00000000
Si      -2.70410742       2.70651834       0.01770352       0.00000000
Si       2.70721881      -2.70668124       0.04330585       0.00000000
Si      -2.69566920      -2.72738583       0.02908386       0.00000000
Si       2.70376533       2.72069064       0.00032338       0.00000000
Si       2.71156824      -0.00371412       2.73904705       0.00000000
