10
Lattice="16.28999089631971 0.0 0.0 0.0 16.28999089631971 0.0 0.0 0.0 34.40246978574605" Properties=species:S:1:pos:R:3:initial_magmoms:R:1 pbc="T T T"
Si      -1.35562122      -1.35542574      -1.35752222       0.00000000
Si      -1.35759231       1.35700587       1.35659335       0.00000000
Si       1.35690813      -1.35698958       1.35779744       0.00000000
Si       1.35894438       1.35677781      -1.35745341       0.00000000
Si       2.71290402       0.00164529      -2.71459720       0.00000000
Si      -2.71482624      -0.00037467       2.71384035       0.00000000
Si       2.71446786      -2.71428867      -0.00010321       0.00000000
Si      -0.00135207       2.71538010       2.71363393       0.00000000
Si       2.71422351       2.71510317      -0.00013761       0.00000000
Si      -2.71396287      -0.00475668      -2.71573248       0.00000000
