10
Lattice="16.28999089631971 0.0 0.0 0.0 16.28999089631971 0.0 0.0 0.0 34.40246978574605" Properties=species:S:1:pos:R:3:initial_magmoms:R:1 pbc="T T T"
Si       1.35723393       1.35738054      -1.35724700       0.00000000
Si      -1.35822762      -1.35697329      -1.35697178       0.00000000
Si       1.35786924      -1.35630540       1.35807266       0.00000000
Si      -1.36335897       1.35850455       1.35728140       0.00000000
Si       2.70581787       0.00426798       2.70386362       0.00000000
Si      -0.00022806      -2.71446786      -2.71411557       0.00000000
Si       2.71482624       0.00037467      -2.71384035       0.00000000
Si       2.71422351      -2.71459818       0.00161692       0.00000000
Si       2.71347417       2.71575477      -0.00020641       0.00000000
Si      -0.00061902       2.71544526      -2.71390915       0.00000000
