10
Lattice="16.28999089631971 0.0 0.0 0.0 16.28999089631971 0.0 0.0 0.0 34.40246978574605" Properties=species:S:1:pos:R:3:initial_magmoms:R:1 pbc="T T T"
Si      -2.06903037      -1.15599216      -0.33043591       0.00000000
Si      -0.80723466       2.34725868       0.25850030       0.00000000
Si       0.97889868      -0.94183241      -2.12727791       0.00000000
Si       1.01646342      -0.51965100       2.26285812       0.00000000
Si      -3.73502726       0.54838656      -0.74935502       0.00000000
Si       3.07908693       0.70407009       2.28607980       0.00000000
Si       2.93444802       2.57753412       0.60789198       0.00000000
Si      -1.60862121      -3.21860168      -1.64351011       0.00000000
Si      -2.35232161       2.35615302      -2.15132525       0.00000000
Si      -1.94817486       2.79683010       2.34466724       0.00000000
