10
Lattice="16.28999089631971 0.0 0.0 0.0 16.28999089631971 0.0 0.0 0.0 34.40246978574605" Properties=species:S:1:pos:R:3:initial_magmoms:R:1 pbc="T T T"
Si       1.35918873      -1.35581670       1.36048083       0.00000000
Si      -1.35918873       1.36068741       1.36003360       0.00000000
Si      -1.35237951      -1.35210258      -1.37856622       0.00000000
Si       1.35138582       1.36858806      -1.37824284       0.00000000
Si       2.71314837      -2.71094922       0.00333704       0.00000000
Si      -2.63588490       0.09371637      -2.78961871       0.00000000
Si       0.00024435      -2.71259451       2.71793424       0.00000000
Si      -2.71300176       2.71798650       0.00430031       0.00000000
Si      -2.71371852      -2.71735119       0.00220176       0.00000000
Si       2.71446786       0.00250866       2.71779663       0.00000000
