10
Lattice="16.28999089631971 0.0 0.0 0.0 16.28999089631971 0.0 0.0 0.0 34.40246978574605" Properties=species:S:1:pos:R:3:initial_magmoms:R:1 pbc="T T T"
Si      -1.72558341       0.50562531      -1.55912080       0.00000000
Si       1.22899905       2.05584687      -0.22062316       0.00000000
Si      -0.82078794       0.26896419       2.24727379       0.00000000
Si       0.81088362      -2.29490262       0.04723462       0.00000000
Si       1.37153655       0.48853710       3.30914102       0.00000000
Si      -1.18822518      -3.59647362       0.40120183       0.00000000
Si      -3.71094345      -0.50860638      -0.80601592       0.00000000
Si      -2.67750585       1.94305491       2.08957278       0.00000000
Si      -2.24872047       2.79033039      -1.58461305       0.00000000
Si       0.11174940       3.96562131       0.80188762       0.00000000
