10
Lattice="16.28999089631971 0.0 0.0 0.0 16.28999089631971 0.0 0.0 0.0 34.40246978574605" Properties=species:S:1:pos:R:3:initial_magmoms:R:1 pbc="T T T"
Si      -1.35677781      -1.34387613       1.37460305       0.00000000
Si       1.35291708       1.37277459       1.36875463       0.00000000
Si      -1.36759437       1.37318184      -1.38272548       0.00000000
Si       1.39703040      -1.28845755      -1.48449836       0.00000000
Si       0.63096057       2.25758223      -2.64069997       0.00000000
Si       2.30742963       0.54218007      -2.66529462       0.00000000
Si       2.70760977      -2.69327457      -0.00794009       0.00000000
Si      -2.70026298      -2.70744687       0.00944004       0.00000000
Si      -0.00296478      -2.70117522       2.73033634       0.00000000
Si       2.71495656       0.01384650       2.73002672       0.00000000
