10
Lattice="16.28999089631971 0.0 0.0 0.0 16.28999089631971 0.0 0.0 0.0 34.40246978574605" Properties=species:S:1:pos:R:3:initial_magmoms:R:1 pbc="T T T"
Si       1.59101172      -0.11345985       1.72377111       0.00000000
Si      -0.34380045       2.37623859       0.00853182       0.00000000
Si       1.22026761      -0.77582754      -1.94835056       0.00000000
Si      -1.88602851      -1.46899310       0.54125436       0.00000000
Si      -1.74437067       2.54065356      -1.86654144       0.00000000
Si       1.19622357      -2.31872186       2.51079686       0.00000000
Si       3.53527209       0.65241450       0.44571865       0.00000000
Si       0.88418862       1.61997534       3.23792786       0.00000000
Si       1.78958682      -3.03652835      -1.44831038       0.00000000
Si       3.28289112       0.44789355      -1.92512888       0.00000000
