10
Lattice="16.28999089631971 0.0 0.0 0.0 16.28999089631971 0.0 0.0 0.0 34.40246978574605" Properties=species:S:1:pos:R:3:initial_magmoms:R:1 pbc="T T T"
Si      -1.35749457       1.35656604      -1.35745341       0.00000000
Si       1.35840681       1.35597960       1.35752222       0.00000000
Si       1.35681039      -1.35827649      -1.35721259       0.00000000
Si      -1.35755973      -1.35853713       1.35965517       0.00000000
Si       2.71217097       0.00472410       2.71181060       0.00000000
Si       2.71448415       2.71396590      -0.00013761       0.00000000
Si      -2.71428867      -0.00167787      -2.71504443       0.00000000
Si      -0.00184077      -2.71513575      -2.71494123       0.00000000
Si      -2.71554300       2.71453998       0.00010321       0.00000000
Si      -0.00071676       2.71593763      -2.71432198       0.00000000
