10
Lattice="16.28999089631971 0.0 0.0 0.0 16.28999089631971 0.0 0.0 0.0 34.40246978574605" Properties=species:S:1:pos:R:3:initial_magmoms:R:1 pbc="T T T"
Si      -1.12848486       0.90064152       1.78992710       0.00000000
Si      -1.03548688      -1.76196550      -1.08625859       0.00000000
Si      -0.08656832       1.39989744      -1.94869459       0.00000000
Si       2.03137766      -1.21507110       0.40254352       0.00000000
Si       2.87844137      -0.08744472      -1.52437429       0.00000000
Si       1.23712613      -0.09210366      -3.19767695       0.00000000
Si       0.61333316       1.42948008       3.16282723       0.00000000
Si       0.72503369      -2.36411231      -2.55889154       0.00000000
Si      -1.42944750      -3.52511432       0.46199102       0.00000000
Si       2.50764839       2.39459742       1.71334716       0.00000000
