10
Lattice="16.28999089631971 0.0 0.0 0.0 16.28999089631971 0.0 0.0 0.0 34.40246978574605" Properties=species:S:1:pos:R:3:initial_magmoms:R:1 pbc="T T T"
Si       1.49162643      -1.13683023      -1.36829708       0.00000000
Si       1.35830907       1.34783460       1.33859741       0.00000000
Si      -1.28930463       1.34392500      -1.41706604       0.00000000
Si      -1.35353610      -1.36985868       1.33522596       0.00000000
Si      -2.10062808      -0.59991183      -2.51944839       0.00000000
Si      -0.18037917      -2.15205561      -2.63146221       0.00000000
Si       0.38530737       2.28310866      -2.83058661       0.00000000
Si       2.23350561       0.53105400      -2.90121492       0.00000000
Si       0.00434943       2.70296712       2.69574120       0.00000000
Si      -2.71021617      -0.00923643       2.69567239       0.00000000
