10
Lattice="16.28999089631971 0.0 0.0 0.0 16.28999089631971 0.0 0.0 0.0 34.40246978574605" Properties=species:S:1:pos:R:3:initial_magmoms:R:1 pbc="T T T"
Si      -1.35301482       1.35584928      -1.35896712       0.00000000
Si      -1.38320019      -1.32144480       1.36736133       0.00000000
Si       1.36010097      -1.36054080      -1.35934555       0.00000000
Si       1.34078103       1.36264221       1.39233754       0.00000000
Si       0.09334170      -2.59545312       2.61307546       0.00000000
Si      -2.71262709       2.70923877       0.00127289       0.00000000
Si       2.71063971       2.71588509       0.00454113       0.00000000
Si       0.00179190       2.71248048      -2.71593890       0.00000000
Si      -2.71329498      -0.00249237      -2.71552607       0.00000000
Si      -2.71204065      -2.71873584       0.00471314       0.00000000
