10
Lattice="16.28999089631971 0.0 0.0 0.0 16.28999089631971 0.0 0.0 0.0 34.40246978574605" Properties=species:S:1:pos:R:3:initial_magmoms:R:1 pbc="T T T"
Si      -1.34078103      -1.36264221      -1.39233754       0.00000000
Si       1.36985868       1.35324288      -1.38779641       0.00000000
Si       1.45125981      -1.29586950       1.42443506       0.00000000
Si      -1.56919941       1.31056308       1.49981091       0.00000000
Si      -0.23806206       1.69927506       3.40708490       0.00000000
Si      -2.67913485       2.71619460      -0.03749871       0.00000000
Si      -2.72398122      -2.68408701      -0.02497621       0.00000000
Si       2.71857294      -2.69407278      -0.04668418       0.00000000
Si       2.73746934       2.70330921      -0.02015986       0.00000000
Si      -2.69379585      -0.00679293      -2.75130466       0.00000000
