10
Lattice="16.28999089631971 0.0 0.0 0.0 16.28999089631971 0.0 0.0 0.0 34.40246978574605" Properties=species:S:1:pos:R:3:initial_magmoms:R:1 pbc="T T T"
Si       1.47654189      -1.27400832       1.24571413       0.00000000
Si       1.38320019       1.32144480      -1.36736133       0.00000000
Si      -1.32884046      -1.39729104      -1.36264819       0.00000000
Si      -1.56302550       1.37909511       1.56207942       0.00000000
Si       0.07169229      -1.62354285       3.05703958       0.00000000
Si      -2.69601129       2.67983532      -0.02298086       0.00000000
Si       0.03018537       2.67729408      -2.72632845       0.00000000
Si       2.72398122       2.68408701       0.02497621       0.00000000
Si      -2.68760565      -0.03903084      -2.72522757       0.00000000
Si      -2.68933239      -2.74652984       0.04231506       0.00000000
