10
Lattice="16.28999089631971 0.0 0.0 0.0 16.28999089631971 0.0 0.0 0.0 34.40246978574605" Properties=species:S:1:pos:R:3:initial_magmoms:R:1 pbc="T T T"
Si       1.05191046       0.11950344       2.10715245       0.00000000
Si       0.84706371       1.12762638      -1.92691781       0.00000000
Si       0.28567773      -1.92184044      -1.40135099       0.00000000
Si      -2.03137766       1.21507110      -0.40254352       0.00000000
Si       2.20517730      -1.89309511       1.80760998       0.00000000
Si      -1.30634397      -1.14904121      -2.96143506       0.00000000
Si      -3.06686454      -0.54689440      -1.48880211       0.00000000
Si       1.85577309      -0.90064641      -2.82238020       0.00000000
Si       2.25435681       2.14734780       1.95564389       0.00000000
Si       1.12112667       3.35112993      -1.10215254       0.00000000
