10
Lattice="16.28999089631971 0.0 0.0 0.0 16.28999089631971 0.0 0.0 0.0 34.40246978574605" Properties=species:S:1:pos:R:3:initial_magmoms:R:1 pbc="T T T"
Si       0.10482615       2.07518310      -1.06076635       0.00000000
Si      -2.03932881      -1.10597697      -0.40471088       0.00000000
Si       1.55066139       0.02182860       1.78789735       0.00000000
Si       1.11537630      -1.87934472      -1.29277673       0.00000000
Si       0.30996612      -3.49505208       0.37667285       0.00000000
Si       3.31377696       1.18708488       0.70329008       0.00000000
Si       0.20719251       0.86991858       3.62086197       0.00000000
Si      -1.89468990      -2.97944100       1.27347694       0.00000000
Si       2.39754591       2.78632305      -0.81207075       0.00000000
Si      -3.86019243       0.14955849       0.30618215       0.00000000
