10
Lattice="16.28999089631971 0.0 0.0 0.0 16.28999089631971 0.0 0.0 0.0 34.40246978574605" Properties=species:S:1:pos:R:3:initial_magmoms:R:1 pbc="T T T"
Si       0.90455112      -2.07948366      -0.70119153       0.00000000
Si      -2.24811774      -0.42613011       0.75100634       0.00000000
Si       1.11840624       0.22110417       2.20980948       0.00000000
Si       0.81322938       1.16683641      -2.11640672       0.00000000
Si       0.96161499       2.18105181       1.06599552       0.00000000
Si       3.12965109      -1.29266037      -0.97269597       0.00000000
Si      -0.59570901      -2.51309088      -2.63130877       0.00000000
Si      -3.54507867       0.15788268      -1.12606227       0.00000000
Si      -2.20160979      -0.69020730      -2.95902688       0.00000000
Si      -2.54352060       0.69242274       2.80280518       0.00000000
