10
Lattice="16.28999089631971 0.0 0.0 0.0 16.28999089631971 0.0 0.0 0.0 34.40246978574605" Properties=species:S:1:pos:R:3:initial_magmoms:R:1 pbc="T T T"
Si      -0.34303482      -2.09539899      -1.03479247       0.00000000
Si       0.65065518       1.18231191      -1.96355646       0.00000000
Si      -1.78044813       1.25227746       1.01019469       0.00000000
Si       1.31953887      -0.74223756       1.89822614       0.00000000
Si       0.18945270       0.34800327       3.61184852       0.00000000
Si       2.20454199      -0.37439307      -2.90367328       0.00000000
Si       0.57319623      -3.69463716       0.48056837       0.00000000
Si       3.51259641      -0.08014680       1.40967639       0.00000000
Si      -2.11527279       0.33894603       3.13028248       0.00000000
Si      -0.75942351       3.21315363       1.87091056       0.00000000
