10
Lattice="16.28999089631971 0.0 0.0 0.0 16.28999089631971 0.0 0.0 0.0 34.40246978574605" Properties=species:S:1:pos:R:3:initial_magmoms:R:1 pbc="T T T"
Si      -0.04694778      -0.92890467       2.11069591       0.00000000
Si       1.13008617      -1.09024083      -1.71362238       0.00000000
Si       0.51826635       2.27905245      -0.01180005       0.00000000
Si      -2.30472549      -0.00905724      -0.48156604       0.00000000
Si      -1.96990083       0.90427419      -2.60165383       0.00000000
Si       1.02123639       0.84230703       3.19674808       0.00000000
Si      -0.19367181       2.64176559       2.23248072       0.00000000
Si      -0.94887621       2.86515036      -1.74093796       0.00000000
Si       1.78385274      -2.33663760       1.97834953       0.00000000
Si      -0.18945270      -0.34800327      -3.61184852       0.00000000
