10
Lattice="16.28999089631971 0.0 0.0 0.0 16.28999089631971 0.0 0.0 0.0 34.40246978574605" Properties=species:S:1:pos:R:3:initial_magmoms:R:1 pbc="T T T"
Si       1.57413528       1.47760074      -0.84664525       0.00000000
Si      -1.93233609       0.37967103      -1.30110213       0.00000000
Si      -0.47561913       0.18793773       2.30923267       0.00000000
Si       1.08185148      -2.11800951       0.15560246       0.00000000
Si       1.48408416      -1.30258098       2.72963109       0.00000000
Si      -2.78386326      -0.51337935       2.12841319       0.00000000
Si      -3.40127055      -1.00036890      -0.16723050       0.00000000
Si       3.21360975      -1.40053275       0.99519520       0.00000000
Si       3.58565706       0.79628778       0.13386008       0.00000000
Si      -1.47592287      -0.75323331      -3.28894675       0.00000000
