10
Lattice="16.28999089631971 0.0 0.0 0.0 16.28999089631971 0.0 0.0 0.0 34.40246978574605" Properties=species:S:1:pos:R:3:initial_magmoms:R:1 pbc="T T T"
Si       1.37718918       1.32579423      -1.35497643       0.00000000
Si       1.35661491      -1.35502201       1.35724700       0.00000000
Si      -1.35809730      -1.33641156      -1.37864878       0.00000000
Si      -1.35586557       1.36085031       1.35714379       0.00000000
Si       0.08027712       2.67424785      -2.70754469       0.00000000
Si       2.71137276      -2.71214558      -0.00495396       0.00000000
Si      -2.71638031      -2.71199897      -0.00591723       0.00000000
Si      -0.00016290      -2.71439360       2.71411557       0.00000000
Si       2.71437012       0.00062228       2.71425318       0.00000000
Si      -2.71552508       0.00101650       2.71404676       0.00000000
