10
Lattice="16.28999089631971 0.0 0.0 0.0 16.28999089631971 0.0 0.0 0.0 34.40246978574605" Properties=species:S:1:pos:R:3:initial_magmoms:R:1 pbc="T T T"
Si       1.46468277      -1.18581426      -1.31181163       0.00000000
Si      -1.33530759      -1.36502055       1.34181748       0.00000000
Si       1.37803626       1.35252612       1.34474169       0.00000000
Si      -1.27972611       1.37077092      -1.44156406       0.00000000
Si       2.39544450       0.43683264      -2.78546430       0.00000000
Si      -2.66085747       2.70827721      -0.01617949       0.00000000
Si       0.48076677       2.37128643      -2.93105564       0.00000000
Si      -2.69198766      -0.00897579       2.70178227       0.00000000
Si       0.21864438      -2.52449388      -2.86173462       0.00000000
Si       0.02349018       2.70662956       2.70253913       0.00000000
