10
Lattice="16.28999089631971 0.0 0.0 0.0 16.28999089631971 0.0 0.0 0.0 34.40246978574605" Properties=species:S:1:pos:R:3:initial_magmoms:R:1 pbc="T T T"
Si      -0.73498851       0.11903103      -2.26233765       0.00000000
Si      -1.92476124      -0.87400574       1.16767793       0.00000000
Si       0.80739756       1.90980702       1.26819512       0.00000000
Si       1.70282628      -1.86982973      -0.04774622       0.00000000
Si       2.08633395       0.49726854       2.64689207       0.00000000
Si       0.29154213      -1.86625245      -2.90497614       0.00000000
Si      -0.65290320      -2.21935679       2.65882629       0.00000000
Si       3.49707597      -0.75872630       1.13429031       0.00000000
Si      -2.96456823      -0.99108523      -2.24699414       0.00000000
Si       0.69859665      -3.56867378       1.29814249       0.00000000
