10
Lattice="16.28999089631971 0.0 0.0 0.0 16.28999089631971 0.0 0.0 0.0 34.40246978574605" Properties=species:S:1:pos:R:3:initial_magmoms:R:1 pbc="T T T"
Si       1.35777150      -1.35564077      -1.35604291       0.00000000
Si      -1.35534429       1.35783666      -1.35752222       0.00000000
Si       1.34390871       1.38694689       1.34747669       0.00000000
Si      -1.34438112      -1.37728529       1.36612284       0.00000000
Si      -2.62210356       0.12292434       2.61489879       0.00000000
Si      -2.71342530      -2.71383363      -0.00072245       0.00000000
Si      -2.71305063      -0.00003258      -2.71476921       0.00000000
Si       0.00000000      -2.71412583      -2.71466601       0.00000000
Si       2.71476108       2.71502172      -0.00034402       0.00000000
Si       0.00143352       2.71547784      -2.71456280       0.00000000
