10
Lattice="16.28999089631971 0.0 0.0 0.0 16.28999089631971 0.0 0.0 0.0 34.40246978574605" Properties=species:S:1:pos:R:3:initial_magmoms:R:1 pbc="T T T"
Si       1.83505630       0.82363869      -1.24788148       0.00000000
Si       1.32429555       0.68947425       1.84534951       0.00000000
Si      -0.88174512      -2.00284573      -1.05945905       0.00000000
Si      -1.89320751       1.60265907       0.05318625       0.00000000
Si       0.38126745       1.99984185      -2.60461244       0.00000000
Si      -2.30702238      -0.76439033      -2.58596629       0.00000000
Si      -0.88604568       3.39804513      -1.13349321       0.00000000
Si       2.70700119       2.49724071       0.44337928       0.00000000
Si       2.99029244      -1.01490447       2.26426862       0.00000000
Si      -3.58474482       0.73581930      -1.33719035       0.00000000
