10
Lattice="16.28999089631971 0.0 0.0 0.0 16.28999089631971 0.0 0.0 0.0 34.40246978574605" Properties=species:S:1:pos:R:3:initial_magmoms:R:1 pbc="T T T"
Si      -0.90455112       2.07948366       0.70119153       0.00000000
Si       2.22509997       0.78682329      -0.27150444       0.00000000
Si       0.39328947      -1.61679879       1.77386114       0.00000000
Si      -1.50026013      -0.43360722      -1.93011724       0.00000000
Si       2.78787060      -0.66318219      -2.04326703       0.00000000
Si      -0.09132174       3.24632007      -1.41521519       0.00000000
Si       0.21385512       2.30058783       2.91100101       0.00000000
Si      -1.51057170      -1.48255290       3.18412237       0.00000000
Si      -3.15266886       1.65335355       1.45219787       0.00000000
Si       3.42993559       0.35759808       1.76092580       0.00000000
