10
Lattice="16.28999089631971 0.0 0.0 0.0 16.28999089631971 0.0 0.0 0.0 34.40246978574605" Properties=species:S:1:pos:R:3:initial_magmoms:R:1 pbc="T T T"
Si       1.36148562      -1.35327546       1.35724700       0.00000000
Si      -1.35511623       1.35913986       1.35783184       0.00000000
Si      -1.36290285      -1.33688772      -1.37824628       0.00000000
Si       1.36829484       1.36708938      -1.35911849       0.00000000
Si      -2.71471221      -2.71207323       0.00027522       0.00000000
Si       0.00197109      -2.71362078       2.71421877       0.00000000
Si      -2.71339272       0.00138465       2.71473481       0.00000000
Si      -2.71244790       2.71854036      -0.00330264       0.00000000
Si       2.71441899       2.71671588       0.00196094       0.00000000
Si       0.00182448       2.71681362       2.71476921       0.00000000
