10
Lattice="16.28999089631971 0.0 0.0 0.0 16.28999089631971 0.0 0.0 0.0 34.40246978574605" Properties=species:S:1:pos:R:3:initial_magmoms:R:1 pbc="T T T"
Si      -0.54118638       1.99930428       1.12265642       0.00000000
Si       0.86887602       0.08485461      -2.18851434       0.00000000
Si      -2.12607306      -1.02012867       0.26524319       0.00000000
Si       1.52149970      -1.31062824       1.33598626       0.00000000
Si       0.18792144      -2.23246305      -2.75739390       0.00000000
Si       0.67469922       1.66153113       3.16967333       0.00000000
Si       0.33267438      -3.33366705       1.69934535       0.00000000
Si       2.92588667       1.47321873      -1.88821501       0.00000000
Si      -1.96928181      -2.98007631       1.40905714       0.00000000
Si       0.03999195       3.85364385      -0.19244752       0.00000000
