10
Lattice="16.28999089631971 0.0 0.0 0.0 16.28999089631971 0.0 0.0 0.0 34.40246978574605" Properties=species:S:1:pos:R:3:initial_magmoms:R:1 pbc="T T T"
Si      -2.01152178       0.68131296      -0.98050534       0.00000000
Si       1.68523308       0.37186812      -1.58822531       0.00000000
Si       0.29913327       1.92516849       1.33306205       0.00000000
Si      -0.37204731      -2.19682053       0.86133512       0.00000000
Si      -3.58565706      -0.79628778      -0.13386008       0.00000000
Si       0.46934748       0.70964127      -3.63524221       0.00000000
Si      -1.91194101       2.61843831       1.96125150       0.00000000
Si      -2.50380558      -2.91429729       0.02174237       0.00000000
Si       1.55176911       3.52854432       0.04252148       0.00000000
Si      -1.87815555       0.86915295      -3.27425689       0.00000000
