10
Lattice="16.28999089631971 0.0 0.0 0.0 16.28999089631971 0.0 0.0 0.0 34.40246978574605" Properties=species:S:1:pos:R:3:initial_magmoms:R:1 pbc="T T T"
Si       1.35596615       1.35624024      -1.35975838       0.00000000
Si      -1.35927018      -1.35912357      -1.36010240       0.00000000
Si       1.36367396      -1.36788759       1.35222423       0.00000000
Si      -1.36827855       1.36288656       1.35394436       0.00000000
Si       2.71419812       2.71235016      -0.00275220       0.00000000
Si       2.71258704      -2.71568961      -0.00478195       0.00000000
Si      -2.71682991       2.71178001      -0.00430031       0.00000000
Si      -2.71604799      -2.71383255      -0.00185773       0.00000000
Si       2.71319302      -0.00180819      -2.71707418       0.00000000
Si       2.69642573       0.00791694       2.73434423       0.00000000
