10
Lattice="16.28999089631971 0.0 0.0 0.0 16.28999089631971 0.0 0.0 0.0 34.40246978574605" Properties=species:S:1:pos:R:3:initial_magmoms:R:1 pbc="T T T"
Si      -1.34855136       1.34889345      -1.35824467       0.00000000
Si       1.36827855      -1.36288656      -1.35394436       0.00000000
Si      -1.34061813      -1.36295172       1.38445937       0.00000000
Si       1.36239786       1.34047152       1.39883961       0.00000000
Si       2.19010905      -0.51315129       2.80173871       0.00000000
Si       0.43538283      -2.36434689       2.73719964       0.00000000
Si      -2.70576900       2.70883762       0.00000000       0.00000000
Si      -2.70557352      -0.00591327      -2.71425318       0.00000000
Si       0.00765630       2.70854542      -2.71394355       0.00000000
Si      -2.69949735      -2.72943837       0.00120409       0.00000000
