10
Lattice="16.28999089631971 0.0 0.0 0.0 16.28999089631971 0.0 0.0 0.0 34.40246978574605" Properties=species:S:1:pos:R:3:initial_magmoms:R:1 pbc="T T T"
Si      -0.29913327      -1.92516849      -1.33306205       0.00000000
Si       1.55869236      -0.20756718       1.79408980       0.00000000
Si      -2.21107428       0.69326982       0.62818945       0.00000000
Si       1.25263584       1.60337583      -1.29054057       0.00000000
Si      -2.98271529       0.86157810      -1.59754838       0.00000000
Si      -2.31065505      -1.24385553      -2.31356739       0.00000000
Si       0.12453705      -1.18913742       3.35840538       0.00000000
Si       1.38609981      -1.55330037      -2.92128735       0.00000000
Si      -2.00275776       3.04782642       0.58938344       0.00000000
Si       2.07121716       3.03704244       0.39848403       0.00000000
