10
Lattice="16.28999089631971 0.0 0.0 0.0 16.28999089631971 0.0 0.0 0.0 34.40246978574605" Properties=species:S:1:pos:R:3:initial_magmoms:R:1 pbc="T T T"
Si      -2.14337304      -0.01383021       0.93440600       0.00000000
Si       1.14082128      -1.43435079       1.53087636       0.00000000
Si       0.61817292       2.30238692       0.16956987       0.00000000
Si       0.33617673      -0.31076433      -2.36049238       0.00000000
Si       2.35336321       1.76246464       1.67165134       0.00000000
Si      -3.49975989       1.13444930      -0.62020807       0.00000000
Si       1.95940260      -0.00068418       3.21990096       0.00000000
Si       2.16509968       1.11446962      -2.88265336       0.00000000
Si       1.07124669       3.06011627      -2.07481411       0.00000000
Si       2.67296650      -2.76418494       0.36855386       0.00000000
