10
Lattice="16.28999089631971 0.0 0.0 0.0 16.28999089631971 0.0 0.0 0.0 34.40246978574605" Properties=species:S:1:pos:R:3:initial_magmoms:R:1 pbc="T T T"
Si       0.76037647      -2.23262595       0.30986322       0.00000000
Si      -1.57978206       0.33480837       1.76808152       0.00000000
Si       1.85788753       1.59873318      -0.10881507       0.00000000
Si      -1.75229316       0.19028349      -2.01849724       0.00000000
Si      -0.89882748       2.65212603       2.33696108       0.00000000
Si      -1.16296983      -3.37657491       0.98026452       0.00000000
Si       1.90131667      -2.68219737      -1.77630372       0.00000000
Si      -1.72574046      -1.92656943       2.75202711       0.00000000
Si      -2.14932933       2.57202810      -1.94666484       0.00000000
Si       2.16094669      -2.39704092       2.18493648       0.00000000
