10
Lattice="16.28999089631971 0.0 0.0 0.0 16.28999089631971 0.0 0.0 0.0 34.40246978574605" Properties=species:S:1:pos:R:3:initial_magmoms:R:1 pbc="T T T"
Si      -1.43415531      -0.98157024       1.56431558       0.00000000
Si      -1.55869236       0.20756718      -1.79408980       0.00000000
Si       2.25089423      -1.09501380      -0.52714934       0.00000000
Si       0.80021760       2.26334889       0.94114889       0.00000000
Si       0.42241242      -2.18136132       2.49036178       0.00000000
Si       0.51252480       3.24460962      -1.39560577       0.00000000
Si      -0.30605652       1.81094301      -3.08463037       0.00000000
Si       2.64263615       1.03154796       2.49576297       0.00000000
Si      -2.73272895       1.17480222       2.49338920       0.00000000
Si       2.86799201      -0.27955269      -2.71807185       0.00000000
