10
Lattice="16.28999089631971 0.0 0.0 0.0 16.28999089631971 0.0 0.0 0.0 34.40246978574605" Properties=species:S:1:pos:R:3:initial_magmoms:R:1 pbc="T T T"
Si      -1.41100885      -1.86844671      -0.17421420       0.00000000
Si       1.00258434       1.20225087      -1.77052410       0.00000000
Si       1.82806380      -1.13228532       1.07487137       0.00000000
Si      -1.61748297       1.64592531       0.80852730       0.00000000
Si       1.81371231       2.75059908      -0.09574213       0.00000000
Si      -0.08731440      -3.36044781      -1.42319657       0.00000000
Si       1.55400084      -3.35578887       0.25010610       0.00000000
Si       1.18320786      -0.87374673       3.48782754       0.00000000
Si      -1.83824994       3.16783485      -1.02804958       0.00000000
Si      -3.64676804      -1.03943232      -0.44661311       0.00000000
