10
Lattice="16.28999089631971 0.0 0.0 0.0 16.28999089631971 0.0 0.0 0.0 34.40246978574605" Properties=species:S:1:pos:R:3:initial_magmoms:R:1 pbc="T T T"
Si       1.74181802       0.52883856       1.37290013       0.00000000
Si       1.12848486      -0.90064152      -1.78992710       0.00000000
Si      -1.54826417       1.62890226      -0.50637024       0.00000000
Si      -0.23373869       1.27723374       2.71976553       0.00000000
Si      -3.11922290      -0.02572191      -1.19373197       0.00000000
Si      -1.26229322       2.94707277       1.44531737       0.00000000
Si       2.50590047      -1.45512054       2.39417242       0.00000000
Si      -3.29306978      -1.88374302       0.41300188       0.00000000
Si       1.04191654       0.49925592      -3.73862169       0.00000000
Si       0.09299798      -2.66260702      -2.87618569       0.00000000
