10
Lattice="16.28999089631971 0.0 0.0 0.0 16.28999089631971 0.0 0.0 0.0 34.40246978574605" Properties=species:S:1:pos:R:3:initial_magmoms:R:1 pbc="T T T"
Si       1.35573525       1.35492075       1.35710939       0.00000000
Si      -1.36078515       1.35264015      -1.35786624       0.00000000
Si       1.35586557      -1.36085031      -1.35714379       0.00000000
Si      -1.35965951      -1.35983381       1.35690297       0.00000000
Si       0.02249649       2.70286938      -2.71003199       0.00000000
Si      -2.69881187       0.00394218      -2.72689953       0.00000000
Si      -0.00226431       2.71241532       2.71425318       0.00000000
Si       2.71305063      -0.00304623       2.71473481       0.00000000
Si      -2.71566777       2.71233387       0.00017201       0.00000000
Si       2.71248048      -2.71587232       0.00010321       0.00000000
