10
Lattice="16.28999089631971 0.0 0.0 0.0 16.28999089631971 0.0 0.0 0.0 34.40246978574605" Properties=species:S:1:pos:R:3:initial_magmoms:R:1 pbc="T T T"
Si       1.56006072      -0.71122140      -1.58323695       0.00000000
Si       1.50980607      -0.28846332       1.85422535       0.00000000
Si      -1.85788753      -1.59873318       0.10881507       0.00000000
Si      -0.69942744       2.20247316      -0.95257052       0.00000000
Si       0.62925012       3.30809175       0.72369076       0.00000000
Si       1.96424820      -2.79511965      -0.60720393       0.00000000
Si       3.49516611       0.72576837       1.10112047       0.00000000
Si      -0.69970437       2.44175697       2.74607548       0.00000000
Si       0.53281332      -0.84027078      -3.63252441       0.00000000
Si       2.11087449      -2.59719615       1.79684200       0.00000000
