10
Lattice="16.28999089631971 0.0 0.0 0.0 16.28999089631971 0.0 0.0 0.0 34.40246978574605" Properties=species:S:1:pos:R:3:initial_magmoms:R:1 pbc="T T T"
Si       1.50493536      -1.59164703       1.04587007       0.00000000
Si      -0.62578361       1.97156241       1.31675527       0.00000000
Si      -2.05701065      -1.38836412      -0.30029933       0.00000000
Si       1.32895449       0.86633478      -2.02238472       0.00000000
Si       2.20951044      -2.73022029      -0.89185013       0.00000000
Si       0.00027693      -0.23928381      -3.69864600       0.00000000
Si       0.14318910       3.70874430      -0.08122428       0.00000000
Si       0.69970437      -2.44175697      -2.74607548       0.00000000
Si      -2.92588667      -1.47321873       1.88821501       0.00000000
Si       3.24294804      -0.27855900       2.00373857       0.00000000
