10
Lattice="16.28999089631971 0.0 0.0 0.0 16.28999089631971 0.0 0.0 0.0 34.40246978574605" Properties=species:S:1:pos:R:3:initial_magmoms:R:1 pbc="T T T"
Si       1.18205127       1.34887716       1.48707308       0.00000000
Si      -1.97078212       0.55711800      -1.18389285       0.00000000
Si      -1.38389251      -1.32331815       1.58716713       0.00000000
Si       1.82000025      -0.34679781      -1.86296358       0.00000000
Si      -0.90468144       1.08954036      -3.22241234       0.00000000
Si       2.25522018       2.92136715      -0.10712935       0.00000000
Si      -0.73785555      -3.48891075      -1.03898957       0.00000000
Si       1.15645968      -2.52379341      -2.48846964       0.00000000
Si      -2.87074858       2.42051481       0.14614177       0.00000000
Si       2.46555666      -0.09694179       2.89812557       0.00000000
