10
Lattice="16.28999089631971 0.0 0.0 0.0 16.28999089631971 0.0 0.0 0.0 34.40246978574605" Properties=species:S:1:pos:R:3:initial_magmoms:R:1 pbc="T T T"
Si       1.35453005      -1.35577285      -1.36398988       0.00000000
Si      -1.36251882       1.36179404      -1.36261378       0.00000000
Si       1.36242256       1.36031816       1.39106464       0.00000000
Si      -1.36554876      -1.36476493       1.39154628       0.00000000
Si       2.70541088      -2.70139201      -0.00299302       0.00000000
Si       2.71401200       2.71730449      -0.00557320       0.00000000
Si       2.71091690       0.00327623      -2.72092726       0.00000000
Si      -0.00370191      -2.71188277      -2.72099606       0.00000000
Si      -2.72794662      -2.70523645      -0.00729333       0.00000000
Si      -2.72029032       2.71743481      -0.00657088       0.00000000
