10
Lattice="16.28999089631971 0.0 0.0 0.0 16.28999089631971 0.0 0.0 0.0 34.40246978574605" Properties=species:S:1:pos:R:3:initial_magmoms:R:1 pbc="T T T"
Si      -1.35604054      -1.35506736      -1.35728140       0.00000000
Si       1.35719646      -1.35804843       1.35717819       0.00000000
Si      -1.35722687       1.35804843       1.35731580       0.00000000
Si       1.35864627       1.35698958      -1.35776303       0.00000000
Si      -0.00060599      -2.71388142       2.71229223       0.00000000
Si       0.00100509       2.71415835       2.71432198       0.00000000
Si      -0.00413929      -2.71381626      -2.71476921       0.00000000
Si      -2.71420300      -2.71459818      -0.00020641       0.00000000
Si       2.71508199      -2.71467963       0.00017201       0.00000000
Si      -2.71742842       0.00068418      -2.71267066       0.00000000
