10
Lattice="10.86 0.0 0.0 0.0 10.86 0.0 0.0 0.0 10.86" Properties=species:S:1:pos:R:3:initial_magmoms:R:1 pbc="T T T"
Si       1.27788534       1.37774304       1.37055372       0.00000000
Si      -1.43711466      -1.33725696       1.37055372       0.00000000
Si      -1.43711466       1.37774304      -1.34444628       0.00000000
Si       2.50617306       0.05333346      -2.73569916       0.00000000
Si      -2.69994804      -0.01513884      -2.63752476       0.00000000
Si       2.63538534       0.02024304       2.72805372       0.00000000
Si       0.22900482      -2.81208840      -2.54210880       0.00000000
Si       2.63538534       2.73524304       0.01305372       0.00000000
Si      -0.07961466      -2.69475696       2.72805372       0.00000000
Si      -0.07961466       2.73524304      -2.70194628       0.00000000
