10
Lattice="16.28999089631971 0.0 0.0 0.0 16.28999089631971 0.0 0.0 0.0 34.36671206372826" Properties=species:S:1:pos:R:3:initial_magmoms:R:1 pbc="T T T"
Si       1.35594887       1.35487188       1.38134327       0.00000000
Si      -1.35532193      -1.36685155       1.37271722       0.00000000
Si       1.40378771      -1.27915270      -1.44014818       0.00000000
Si      -1.45249178       1.33703433      -1.37748045       0.00000000
Si       2.68862888       2.70011637       0.03383061       0.00000000
Si       2.70677594      -2.70773556       0.00782530       0.00000000
Si      -2.70890690      -2.72079557      -0.01306623       0.00000000
Si      -2.73112646       2.70707220       0.02429384       0.00000000
Si      -0.00084809       2.70842427       2.73552995       0.00000000
Si       2.71495352      -0.00485442       2.73425838       0.00000000
