10
Lattice="16.28999089631971 0.0 0.0 0.0 16.28999089631971 0.0 0.0 0.0 34.36671206372826" Properties=species:S:1:pos:R:3:initial_magmoms:R:1 pbc="T T T"
Si       1.35430173       1.36423967       1.35050944       0.00000000
Si       1.35871632      -1.35367256      -1.35844815       0.00000000
Si      -1.35775521       1.35928751      -1.35958226       0.00000000
Si      -1.34975682      -1.36725842       1.36453107       0.00000000
Si      -2.67646329      -0.01919576       2.72414769       0.00000000
Si      -2.71208952      -2.71300790       0.00024057       0.00000000
Si       0.00096111      -2.71263323      -2.71596841       0.00000000
Si       2.71572219      -2.71291016       0.00580798       0.00000000
Si      -2.71357191       0.00207132      -2.71627771       0.00000000
Si      -2.71305063       2.71950251       0.00127157       0.00000000
