10
Lattice="16.28999089631971 0.0 0.0 0.0 16.28999089631971 0.0 0.0 0.0 34.36671206372826" Properties=species:S:1:pos:R:3:initial_magmoms:R:1 pbc="T T T"
Si       0.98930799      -1.91846027       0.88508080       0.00000000
Si      -1.42470711       0.53243865       1.84020099       0.00000000
Si      -1.16590788       0.06454098      -2.08509832       0.00000000
Si       1.92839391       1.43957988      -0.22936356       0.00000000
Si       0.65964726       0.89787222      -3.29154242       0.00000000
Si      -0.28403244       2.38917285       2.71359710       0.00000000
Si       1.98265590       2.39433678       1.92199381       0.00000000
Si       1.32089094       2.77560423      -2.02657178       0.00000000
Si      -0.60709572      -3.62158370       0.70420869       0.00000000
Si      -2.11385556      -2.15207027      -2.49956110       0.00000000
