10
Lattice="16.28999089631971 0.0 0.0 0.0 16.28999089631971 0.0 0.0 0.0 34.36671206372826" Properties=species:S:1:pos:R:3:initial_magmoms:R:1 pbc="T T T"
Si      -0.74357334      -1.85392743      -1.20637537       0.00000000
Si       1.64740770      -0.68038443       1.52327100       0.00000000
Si       1.24150977       1.42900767      -1.40975768       0.00000000
Si      -1.40457267       1.23924546       1.49134430       0.00000000
Si       2.35989972       2.47309893       0.40796747       0.00000000
Si       1.89952803       1.42167717       2.52279301       0.00000000
Si      -2.44602495      -0.45937800       2.66527748       0.00000000
Si       0.13339881      -1.76056618       3.23370321       0.00000000
Si       1.21314888      -3.16743479      -1.44474302       0.00000000
Si      -0.32526243       2.85045678      -2.43457361       0.00000000
