10
Lattice="16.28999089631971 0.0 0.0 0.0 16.28999089631971 0.0 0.0 0.0 34.36671206372826" Properties=species:S:1:pos:R:3:initial_magmoms:R:1 pbc="T T T"
Si      -0.92018952      -1.63984914       1.35817597       0.00000000
Si       0.68398452      -1.65089376      -1.55806941       0.00000000
Si       1.79984952       1.10465748       1.13489532       0.00000000
Si      -1.86746931       1.62096903      -0.31890818       0.00000000
Si      -2.29443021      -0.28181700       2.59878060       0.00000000
Si       0.44574327       2.43533871       2.57386816       0.00000000
Si      -1.54287477      -2.68892514      -2.05484051       0.00000000
Si      -2.41113177       1.00525590      -2.68894107       0.00000000
Si       2.53645074       2.82224250      -0.35743329       0.00000000
Si       2.09712573      -0.63954540      -3.13419644       0.00000000
