10
Lattice="16.28999089631971 0.0 0.0 0.0 16.28999089631971 0.0 0.0 0.0 34.36671206372826" Properties=species:S:1:pos:R:3:initial_magmoms:R:1 pbc="T T T"
Si      -0.89246394      -2.10997854       0.46178577       0.00000000
Si       0.26707455       1.14122853       2.03915000       0.00000000
Si       2.14218387      -0.13199787      -0.96842012       0.00000000
Si      -1.70593767       1.11930219      -1.24345707       0.00000000
Si      -3.11135742       1.58097708       0.62097247       0.00000000
Si      -0.94672593      -3.06473544      -1.68957161       0.00000000
Si       2.60397279       2.06625618      -1.65276484       0.00000000
Si       1.11663063       3.54634929      -0.54684343       0.00000000
Si       1.81457568      -0.12455334       3.29896563       0.00000000
Si      -1.88273304       1.82702124       2.73679464       0.00000000
