10
Lattice="16.28999089631971 0.0 0.0 0.0 16.28999089631971 0.0 0.0 0.0 34.36671206372826" Properties=species:S:1:pos:R:3:initial_magmoms:R:1 pbc="T T T"
Si       1.71716148      -1.26099261       0.90229853       0.00000000
Si       0.52978338       0.34505478      -2.23201610       0.00000000
Si      -0.24910668       1.97600958       1.23129125       0.00000000
Si      -2.28512862      -0.47319192       0.44322773       0.00000000
Si      -1.55204604       3.04090317      -0.44047839       0.00000000
Si      -0.84923028       2.23876728      -2.52337724       0.00000000
Si      -0.61089129      -1.51167942      -3.10541220       0.00000000
Si       0.67570920      -2.95961607       2.07623170       0.00000000
Si      -3.33641191       1.71198126       0.29768463       0.00000000
Si      -2.34593919      -0.85364487       2.88419356       0.00000000
