10
Lattice="16.28999089631971 0.0 0.0 0.0 16.28999089631971 0.0 0.0 0.0 34.36671206372826" Properties=species:S:1:pos:R:3:initial_magmoms:R:1 pbc="T T T"
Si      -1.79955630      -1.06282476       1.18139560       0.00000000
Si       0.91453689       1.76044401       1.35626041       0.00000000
Si       1.74560382      -1.78370613      -0.21118356       0.00000000
Si      -0.34510365      -2.17060992       2.72011788       0.00000000
Si       2.37672729       0.54801189       2.73241774       0.00000000
Si       3.48879672      -0.95332338       1.29758265       0.00000000
Si       1.00900260      -3.50129115       1.28114504       0.00000000
Si      -1.90506663      -0.31819257      -3.42302953       0.00000000
Si      -2.65831623      -2.98497960      -0.17265846       0.00000000
Si       1.78526997       3.67831458       0.16688489       0.00000000
