10
Lattice="16.28999089631971 0.0 0.0 0.0 16.28999089631971 0.0 0.0 0.0 34.36671206372826" Properties=species:S:1:pos:R:3:initial_magmoms:R:1 pbc="T T T"
Si       1.20081735       0.36300214       1.94749393       0.00000000
Si       1.19765709      -1.26091116      -1.60265815       0.00000000
Si      -0.03951954       2.01465665      -1.30377068       0.00000000
Si      -2.22252615      -0.57979368       0.77332019       0.00000000
Si      -0.44686728       1.38743952       3.30315838       0.00000000
Si       3.36111570       0.87319680       1.20506943       0.00000000
Si      -0.46139796      -1.49793066      -3.34865993       0.00000000
Si      -3.55003083       1.15382952      -0.08148352       0.00000000
Si      -2.04327099      -0.31568391       3.12228627       0.00000000
Si      -1.99132218       1.63571215      -2.72084848       0.00000000
