10
Lattice="16.28999089631971 0.0 0.0 0.0 16.28999089631971 0.0 0.0 0.0 34.36671206372826" Properties=species:S:1:pos:R:3:initial_magmoms:R:1 pbc="T T T"
Si       1.14067467       1.85673420       0.87339611       0.00000000
Si      -2.15992857       0.87588072      -0.50577518       0.00000000
Si       1.42470711      -0.53243865      -1.84020099       0.00000000
Si      -0.83437380      -1.72690290       1.48275262       0.00000000
Si       0.61089129       1.51167942       3.10541220       0.00000000
Si       2.41401510      -2.45089892      -0.95512020       0.00000000
Si      -2.81153834      -0.70359768       2.41481274       0.00000000
Si      -0.23833899       3.75044670       0.58203496       0.00000000
Si      -2.87083557       0.02880072      -2.55626621       0.00000000
Si      -2.01874965       3.18127410      -0.84195055       0.00000000
