10
Lattice="16.28999089631971 0.0 0.0 0.0 16.28999089631971 0.0 0.0 0.0 34.36671206372826" Properties=species:S:1:pos:R:3:initial_magmoms:R:1 pbc="T T T"
Si      -1.37495745      -1.31172472      -1.35932107       0.00000000
Si       1.34846991      -1.35119373       1.35456471       0.00000000
Si       1.35392706       1.34675294      -1.37112260       0.00000000
Si      -1.36313091       1.36156055       1.35057817       0.00000000
Si      -2.16510390       0.59591426      -2.73556432       0.00000000
Si      -0.31255623       2.41540952      -2.69301487       0.00000000
Si      -0.07392402      -2.68030514      -2.69434829       0.00000000
Si       2.71003698      -2.70902441      -0.01041312       0.00000000
Si       2.70909216       0.00401386       2.71046973       0.00000000
Si      -0.00491958      -2.70974117       2.71022916       0.00000000
