10
Lattice="16.28999089631971 0.0 0.0 0.0 16.28999089631971 0.0 0.0 0.0 34.36671206372826" Properties=species:S:1:pos:R:3:initial_magmoms:R:1 pbc="T T T"
Si      -0.46858674      -2.11134594      -0.77108635       0.00000000
Si       0.87417027       0.11941710       2.16293897       0.00000000
Si       2.01285756       0.60056832      -1.03794402       0.00000000
Si      -1.92654404       1.32041038      -0.34191461       0.00000000
Si      -0.93787883       2.56213192      -2.09681737       0.00000000
Si      -1.88223524       2.38968598       1.83078451       0.00000000
Si       1.03928571       1.53882670      -3.02887749       0.00000000
Si      -1.10783403       0.60162880       3.34697596       0.00000000
Si      -3.56575787      -0.38160905      -0.85504427       0.00000000
Si      -2.70637892      -2.50010679      -0.17592330       0.00000000
