10
Lattice="16.28999089631971 0.0 0.0 0.0 16.28999089631971 0.0 0.0 0.0 34.36671206372826" Properties=species:S:1:pos:R:3:initial_magmoms:R:1 pbc="T T T"
Si      -1.36018242      -1.35353610       1.37860424       0.00000000
Si       1.36441782       1.35640314       1.37179963       0.00000000
Si       1.05326253      -1.66384431      -1.31386076       0.00000000
Si      -1.35915615       1.37619549      -1.43296554       0.00000000
Si      -2.67718005      -2.71987614       0.01671598       0.00000000
Si      -0.79928514      -3.48333957      -1.35641021       0.00000000
Si       2.70352098       2.70627399      -0.00892504       0.00000000
Si      -2.71326240       2.70687672       0.00600730       0.00000000
Si       0.00043983       2.71248048       2.73114132       0.00000000
Si      -2.71298547      -0.00368154       2.73337515       0.00000000
