10
Lattice="16.28999089631971 0.0 0.0 0.0 16.28999089631971 0.0 0.0 0.0 34.36671206372826" Properties=species:S:1:pos:R:3:initial_magmoms:R:1 pbc="T T T"
Si       1.35632169       1.35785295       1.35769209       0.00000000
Si      -1.35852084       1.35767376      -1.35624868       0.00000000
Si       1.35852084      -1.35760860      -1.35679855       0.00000000
Si      -1.35814617      -1.35861858       1.35786392       0.00000000
Si      -2.71547784      -0.00197109      -2.71315033       0.00000000
Si       0.00089595      -2.71347417       2.71565910       0.00000000
Si      -2.71420722      -2.71524978       0.00041240       0.00000000
Si      -2.71391400       0.00122175       2.71562474       0.00000000
Si      -0.00205254       2.71419093      -2.71538417       0.00000000
Si       2.71476108      -0.00188964      -2.71486867       0.00000000
