10
Lattice="16.28999089631971 0.0 0.0 0.0 16.28999089631971 0.0 0.0 0.0 34.36671206372826" Properties=species:S:1:pos:R:3:initial_magmoms:R:1 pbc="T T T"
Si       1.35668007      -1.35275418      -1.35652362       0.00000000
Si      -1.35624024      -1.35571896       1.35807012       0.00000000
Si      -1.35283563       1.36000323      -1.35985719       0.00000000
Si       1.35826020       1.35873261       1.35807012       0.00000000
Si       2.69954622       0.00027693      -2.71027384       0.00000000
Si       2.71363707      -2.71272483      -0.00127157       0.00000000
Si       0.00039096      -2.71298547       2.71473120       0.00000000
Si       2.71379997       2.71474479       0.00079043       0.00000000
Si      -2.71456560      -2.71409319      -0.00192454       0.00000000
Si      -2.71476108       0.00188964       2.71486867       0.00000000
