10
Lattice="16.28999089631971 0.0 0.0 0.0 16.28999089631971 0.0 0.0 0.0 34.36671206372826" Properties=species:S:1:pos:R:3:initial_magmoms:R:1 pbc="T T T"
Si       1.35788553      -1.35656604      -1.36040706       0.00000000
Si      -1.35658233       1.35977517      -1.35989156       0.00000000
Si      -1.34848620      -1.36601424       1.36257216       0.00000000
Si       1.37621178       1.36565586       1.34229579       0.00000000
Si      -0.08063550       2.57453676       2.69098379       0.00000000
Si      -2.71200807      -2.71155195      -0.00192454       0.00000000
Si       2.71992501      -2.71028133      -0.00226820       0.00000000
Si      -2.71290402       0.00192222      -2.71758364       0.00000000
Si       0.00224802      -2.71295289      -2.71772111       0.00000000
Si      -2.71345788       2.71958292      -0.00481134       0.00000000
