10
Lattice="16.28999089631971 0.0 0.0 0.0 16.28999089631971 0.0 0.0 0.0 34.36671206372826" Properties=species:S:1:pos:R:3:initial_magmoms:R:1 pbc="T T T"
Si       1.45650519      -0.37721124       1.76882129       0.00000000
Si      -0.73067166      -1.92380013      -1.09454602       0.00000000
Si       1.92410964       0.83782728      -1.14795192       0.00000000
Si      -1.73180619       1.77310134       0.35851374       0.00000000
Si      -2.14941663      -0.59041476      -2.52567981       0.00000000
Si       0.57528135       2.14125534      -2.54595619       0.00000000
Si      -0.88156593       3.35013624      -1.19726818       0.00000000
Si      -3.44321730       0.77667462      -1.08701971       0.00000000
Si      -2.63124225      -2.70376533       0.19774617       0.00000000
Si       3.68206128       1.40958999       0.58196623       0.00000000
