10
Lattice="16.28999089631971 0.0 0.0 0.0 16.28999089631971 0.0 0.0 0.0 34.36671206372826" Properties=species:S:1:pos:R:3:initial_magmoms:R:1 pbc="T T T"
Si      -0.08654877      -1.14549651      -2.02536894       0.00000000
Si       0.46178892       2.19825405      -0.68434472       0.00000000
Si      -2.14218387       0.13199787       0.96842012       0.00000000
Si       1.95012477      -0.61201530       1.24747798       0.00000000
Si       1.67211963      -0.02019960      -3.17919758       0.00000000
Si      -0.76365891      -3.32640171      -1.40264377       0.00000000
Si       2.73582405       2.56316634      -0.08285819       0.00000000
Si      -1.87510932       1.27322640       3.00757012       0.00000000
Si       3.73888080       0.44988093       0.06663709       0.00000000
Si       1.75980870       0.56503494       3.30838212       0.00000000
