10
Lattice="16.28999089631971 0.0 0.0 0.0 16.28999089631971 0.0 0.0 0.0 34.36671206372826" Properties=species:S:1:pos:R:3:initial_magmoms:R:1 pbc="T T T"
Si      -0.19031607       1.17705024       2.06090414       0.00000000
Si       1.78875603       1.06189623      -1.18084089       0.00000000
Si      -1.95012477       0.61201530      -1.24747798       0.00000000
Si       0.21240531      -2.35265067       0.43037458       0.00000000
Si       0.78569928       3.17518164      -1.33033617       0.00000000
Si       1.60783929       0.26481024       3.29195482       0.00000000
Si      -1.48833585       2.81026935      -1.93182270       0.00000000
Si      -1.74475674      -3.32430030      -0.54326929       0.00000000
Si      -2.27773296       0.61945983       3.01990778       0.00000000
Si      -2.03667354      -0.53348121      -3.27284692       0.00000000
