10
Lattice="16.28999089631971 0.0 0.0 0.0 16.28999089631971 0.0 0.0 0.0 34.36671206372826" Properties=species:S:1:pos:R:3:initial_magmoms:R:1 pbc="T T T"
Si       1.88659377       1.06912899      -0.71592775       0.00000000
Si      -0.78030729      -1.95668964      -0.93546243       0.00000000
Si      -1.82874798       1.39447287      -0.33143276       0.00000000
Si       0.24477354      -0.34402851       2.32655897       0.00000000
Si      -1.48838472      -0.55320840      -2.81308879       0.00000000
Si       1.41081174       3.18432033      -0.01556813       0.00000000
Si       0.74746665      -3.37799214       0.63901500       0.00000000
Si      -0.99194697       1.48022343       3.10902071       0.00000000
Si      -2.95305120       1.25481870       1.80040432       0.00000000
Si       3.61771578      -0.53050014      -0.63884317       0.00000000
