10
Lattice="16.28999089631971 0.0 0.0 0.0 16.28999089631971 0.0 0.0 0.0 34.36671206372826" Properties=species:S:1:pos:R:3:initial_magmoms:R:1 pbc="T T T"
Si      -1.30103343       1.36858042       1.33502723       0.00000000
Si       1.05090048       1.52999657      -1.40881401       0.00000000
Si       1.41661098      -1.39522221       1.32023579       0.00000000
Si      -1.87478352      -0.97463070      -1.23203151       0.00000000
Si      -0.40560471       0.81306648      -3.58391880       0.00000000
Si      -2.65065993      -0.02596626       2.68386644       0.00000000
Si       0.07392402       2.68030514       2.69434829       0.00000000
Si       0.06646320      -2.74173732       2.68888398       0.00000000
Si       2.78396100      -0.02871927       2.68393518       0.00000000
Si      -2.09117988       3.27621941      -0.04121602       0.00000000
