10
Lattice="16.28999089631971 0.0 0.0 0.0 16.28999089631971 0.0 0.0 0.0 34.36671206372826" Properties=species:S:1:pos:R:3:initial_magmoms:R:1 pbc="T T T"
Si      -1.35014778      -1.34651511       1.36864820       0.00000000
Si       1.36735002       1.36650294       1.36369939       0.00000000
Si      -1.41661098       1.39522221      -1.32023579       0.00000000
Si       1.07812107      -1.60832799      -1.40617667       0.00000000
Si       2.57554674      -0.36637839      -2.62450994       0.00000000
Si      -2.69993718      -2.70971118       0.01326556       0.00000000
Si      -2.70518256       0.00676035       2.72709635       0.00000000
Si       0.00884547      -2.70666495       2.72603098       0.00000000
Si       2.72360655      -2.71920825      -0.01239264       0.00000000
Si       2.72561022       0.00791694       2.72702762       0.00000000
