10
Lattice="16.28999089631971 0.0 0.0 0.0 16.28999089631971 0.0 0.0 0.0 34.36671206372826" Properties=species:S:1:pos:R:3:initial_magmoms:R:1 pbc="T T T"
Si       1.67101191       0.32685885       1.60152404       0.00000000
Si      -1.04826150       2.09600172      -0.38758800       0.00000000
Si      -1.46404746      -1.64908557       0.91405195       0.00000000
Si       0.93871125       0.05501133      -2.21053689       0.00000000
Si      -0.22732695      -3.47333751       0.13159021       0.00000000
Si       2.29148172       2.51802675       1.24373200       0.00000000
Si      -1.22912937       0.30522573      -3.42189543       0.00000000
Si       3.36562803      -1.16783010       0.87501134       0.00000000
Si      -2.30084847      -1.73483613      -2.52640152       0.00000000
Si       1.41449328      -2.06018001      -2.91089651       0.00000000
