10
Lattice="16.28999089631971 0.0 0.0 0.0 16.28999089631971 0.0 0.0 0.0 34.36671206372826" Properties=species:S:1:pos:R:3:initial_magmoms:R:1 pbc="T T T"
Si      -1.91048535      -0.77379129      -1.09163688       0.00000000
Si       1.35257173      -1.26957744       1.44748204       0.00000000
Si       1.77953263       0.63320859      -1.47020674       0.00000000
Si      -1.31498811       1.45487619       1.42533956       0.00000000
Si       2.63829256       2.55536343      -0.11615268       0.00000000
Si       2.72681242      -2.62760958       0.20687741       0.00000000
Si      -2.54993301       2.82364344      -0.04366637       0.00000000
Si       0.01989172      -2.61482193       2.79499470       0.00000000
Si      -2.78854893      -2.63265948       0.03617098       0.00000000
Si      -2.69525610       0.09656712       2.78671232       0.00000000
