10
Lattice="16.28999089631971 0.0 0.0 0.0 16.28999089631971 0.0 0.0 0.0 34.36671206372826" Properties=species:S:1:pos:R:3:initial_magmoms:R:1 pbc="T T T"
Si      -1.35762489      -1.35736547      -1.35569882       0.00000000
Si       1.35753696       1.35790182      -1.35607685       0.00000000
Si       1.35456091      -1.35706193       1.36009776       0.00000000
Si      -1.35511623       1.36054080       1.35927296       0.00000000
Si      -0.02985957      -2.68111313       2.72675956       0.00000000
Si      -2.71248048      -2.71331846       0.00134030       0.00000000
Si      -0.00011403      -2.71493117      -2.71332217       0.00000000
Si      -2.71552671      -0.00078518      -2.71294413       0.00000000
Si       2.71316207       2.71536381       0.00103100       0.00000000
Si       2.71487252      -0.00035675      -2.71373457       0.00000000
