10
Lattice="16.28999089631971 0.0 0.0 0.0 16.28999089631971 0.0 0.0 0.0 34.36671206372826" Properties=species:S:1:pos:R:3:initial_magmoms:R:1 pbc="T T T"
Si      -1.34560287      -1.34763912      -1.36205666       0.00000000
Si       1.31103549      -1.42081380       1.36064762       0.00000000
Si       1.36703546       1.36599795      -1.36655870       0.00000000
Si      -1.34048781       1.42487001       1.38051160       0.00000000
Si       2.24774700       0.25223436       2.60833180       0.00000000
Si       0.41746383       1.99663272       3.11042975       0.00000000
Si      -2.68931610       2.72829807      -0.01749267       0.00000000
Si      -2.70513369      -2.71422514       0.01522446       0.00000000
Si      -2.70764235       0.00607617      -2.72019551       0.00000000
Si       0.00951336      -2.70817992      -2.72132962       0.00000000
