10
Lattice="16.28999089631971 0.0 0.0 0.0 16.28999089631971 0.0 0.0 0.0 34.36671206372826" Properties=species:S:1:pos:R:3:initial_magmoms:R:1 pbc="T T T"
Si       1.29808494       1.21329712      -1.61832938       0.00000000
Si      -0.82683153       0.87555655       2.10345015       0.00000000
Si      -1.51466049      -1.43037279      -1.34899730       0.00000000
Si       2.08591074      -0.74636870       1.16358879       0.00000000
Si      -1.82104281       2.84394241       1.31830781       0.00000000
Si       2.23479645       2.88634528      -0.37064520       0.00000000
Si       2.69894905      -2.66402329      -0.17100885       0.00000000
Si       3.66875954       1.20870334       0.82026514       0.00000000
Si      -0.01295055       2.63411092      -2.97897700       0.00000000
Si      -2.71808424      -0.08011422      -2.96375254       0.00000000
