10
Lattice="16.28999089631971 0.0 0.0 0.0 16.28999089631971 0.0 0.0 0.0 34.36671206372826" Properties=species:S:1:pos:R:3:initial_magmoms:R:1 pbc="T T T"
Si      -1.35563751      -1.35638685      -1.35731405       0.00000000
Si       1.36203948      -1.35371529       1.35813885       0.00000000
Si       1.35920502       1.35837423      -1.35721095       0.00000000
Si      -1.35788553       1.35656604       1.36040706       0.00000000
Si       0.01832625       2.72222190       2.70270285       0.00000000
Si      -2.71226871       0.00087966      -2.71397514       0.00000000
Si      -2.71406061      -2.71354585       0.00037803       0.00000000
Si       2.70764235      -0.00607617       2.72019551       0.00000000
Si       0.00162900      -2.71504127      -2.71407824       0.00000000
Si       0.00223173       2.71533123      -2.71397514       0.00000000
