10
Lattice="16.28999089631971 0.0 0.0 0.0 16.28999089631971 0.0 0.0 0.0 34.36671206372826" Properties=species:S:1:pos:R:3:initial_magmoms:R:1 pbc="T T T"
Si      -1.35563998       1.35881406       1.35373991       0.00000000
Si      -1.35562512      -1.35746199      -1.35710785       0.00000000
Si       1.35887270       1.35715248      -1.35731405       0.00000000
Si       1.35981752      -1.35555606       1.36075072       0.00000000
Si      -2.71356932       2.71345788       0.00089354       0.00000000
Si      -2.71391141       0.00065160      -2.71442190       0.00000000
Si      -2.71316207      -2.71536381      -0.00103100       0.00000000
Si       0.00157687       2.71507059      -2.71425007       0.00000000
Si       0.00171045      -2.71572056      -2.71476557       0.00000000
Si       2.71680710       0.00063531      -2.71397514       0.00000000
