10
Lattice="16.28999089631971 0.0 0.0 0.0 16.28999089631971 0.0 0.0 0.0 34.36671206372826" Properties=species:S:1:pos:R:3:initial_magmoms:R:1 pbc="T T T"
Si      -1.58975739       1.63883916       0.43666369       0.00000000
Si      -0.73247985      -0.78599250      -2.10932687       0.00000000
Si      -0.73917504      -1.74377934       1.45536234       0.00000000
Si       2.88439604      -1.26130212       0.00914155       0.00000000
Si       1.50619688      -2.40220485       1.50804653       0.00000000
Si       3.27374333       0.89129106       1.06365033       0.00000000
Si      -0.18161721       3.56241123      -0.10145059       0.00000000
Si       2.06853093       2.90576133       0.60224260       0.00000000
Si       0.16972551       0.96154983      -3.49495910       0.00000000
Si      -1.73206683       1.85875416       2.78253676       0.00000000
