10
Lattice="16.28999089631971 0.0 0.0 0.0 16.28999089631971 0.0 0.0 0.0 34.36671206372826" Properties=species:S:1:pos:R:3:initial_magmoms:R:1 pbc="T T T"
Si      -1.35754344      -1.35281934      -1.39522056       0.00000000
Si       1.36386704       1.35866745      -1.39412082       0.00000000
Si       1.12831056      -1.62419445       1.43285213       0.00000000
Si      -1.25446032       1.48704894       1.52756684       0.00000000
Si      -2.69441487      -2.70899442      -0.05161883       0.00000000
Si       2.69806124      -2.70817992      -0.03976231       0.00000000
Si       2.69940354       2.71551042      -0.01488079       0.00000000
Si      -2.70751203       2.71899648      -0.00914155       0.00000000
Si      -2.71119357      -0.00203625      -2.75576508       0.00000000
Si       0.00250866       2.71383255      -2.75384054       0.00000000
