10
Lattice="16.28999089631971 0.0 0.0 0.0 16.28999089631971 0.0 0.0 0.0 34.36671206372826" Properties=species:S:1:pos:R:3:initial_magmoms:R:1 pbc="T T T"
Si       1.35242838      -1.35801585       1.35597375       0.00000000
Si       1.35485559       1.35595299      -1.35703912       0.00000000
Si      -1.35954711       1.35245401       1.35975409       0.00000000
Si      -1.35997065      -1.35866745      -1.35659235       0.00000000
Si       2.68262091       0.03220533       2.72541926       0.00000000
Si       2.71248048       2.71331846      -0.00134030       0.00000000
Si      -0.00304623       2.71253328      -2.71428444       0.00000000
Si       2.71236645      -0.00161271      -2.71466247       0.00000000
Si       2.71057455      -2.71736748       0.00027493       0.00000000
Si      -0.00263898      -2.71601541      -2.71479994       0.00000000
