10
Lattice="16.28999089631971 0.0 0.0 0.0 16.28999089631971 0.0 0.0 0.0 34.36671206372826" Properties=species:S:1:pos:R:3:initial_magmoms:R:1 pbc="T T T"
Si      -1.35627282      -1.35588186      -1.35762335       0.00000000
Si      -1.35814617       1.35935163       1.35569882       0.00000000
Si       1.35914797       1.35826020      -1.35748589       0.00000000
Si       1.36135838      -1.35516510       1.35971972       0.00000000
Si      -2.71057455       2.71736748      -0.00027493       0.00000000
Si      -2.71321353       0.00135207      -2.71507487       0.00000000
Si       0.00156384      -2.71379997      -2.71507487       0.00000000
Si      -2.71370223      -2.71586880      -0.00192454       0.00000000
Si       0.00179190       2.71575477      -2.71493740       0.00000000
Si       2.71682732      -2.71412577      -0.00068733       0.00000000
