10
Lattice="16.28999089631971 0.0 0.0 0.0 16.28999089631971 0.0 0.0 0.0 34.36671206372826" Properties=species:S:1:pos:R:3:initial_magmoms:R:1 pbc="T T T"
Si      -1.13730101      -1.74208518      -1.13382720       0.00000000
Si       2.28512862       0.47319192      -0.44322773       0.00000000
Si      -1.05128329       2.18517318      -0.14554311       0.00000000
Si      -0.06081057      -0.38045295       2.44096582       0.00000000
Si       2.03602194       2.44920150       0.78806351       0.00000000
Si       0.71755821       1.90938348       2.73249880       0.00000000
Si      -2.28446792      -0.26427267      -2.52131524       0.00000000
Si       0.83986353      -2.76539040      -2.06588732       0.00000000
Si       0.73308258       3.51409509      -0.88370613       0.00000000
Si      -2.12596622      -2.98380672       0.62107557       0.00000000
