10
Lattice="16.28999089631971 0.0 0.0 0.0 16.28999089631971 0.0 0.0 0.0 34.36671206372826" Properties=species:S:1:pos:R:3:initial_magmoms:R:1 pbc="T T T"
Si      -1.33553650      -1.35684297      -1.37924003       0.00000000
Si       1.37895176       1.35630540      -1.37982426       0.00000000
Si       1.28165159      -1.46777787       1.36968607       0.00000000
Si      -1.40996859       1.48880826       1.42144237       0.00000000
Si       2.47952045      -0.04416219       2.87024066       0.00000000
Si      -2.69940354      -2.71551042       0.01488079       0.00000000
Si      -2.69689488      -0.00167787      -2.73895975       0.00000000
Si       2.74128446       2.70205488      -0.01553376       0.00000000
Si       2.73851516      -2.70935280      -0.02625618       0.00000000
Si       0.01923034       2.71391400      -2.73913158       0.00000000
