10
Lattice="16.28999089631971 0.0 0.0 0.0 16.28999089631971 0.0 0.0 0.0 34.36671206372826" Properties=species:S:1:pos:R:3:initial_magmoms:R:1 pbc="T T T"
Si       1.03296193      -0.23410359      -2.14386543       0.00000000
Si       1.20521239      -2.01447027       0.46140773       0.00000000
Si       0.30510193       1.62755019       1.78284292       0.00000000
Si      -2.25014814       0.65664990      -0.70369319       0.00000000
Si       0.28975186      -2.15549280       2.62011959       0.00000000
Si      -1.08328663       3.03611391      -1.35958226       0.00000000
Si       0.10322158       1.74980664      -3.07252324       0.00000000
Si      -2.06853093      -2.90576133      -0.60224260       0.00000000
Si      -1.98747189       0.31346847      -3.06585610       0.00000000
Si       0.00151497       3.72278628       0.67183523       0.00000000
