10
Lattice="16.28999089631971 0.0 0.0 0.0 16.28999089631971 0.0 0.0 0.0 34.36671206372826" Properties=species:S:1:pos:R:3:initial_magmoms:R:1 pbc="T T T"
Si       2.25860785       0.90790686      -0.76534711       0.00000000
Si      -1.15907392       1.11162960       2.08093995       0.00000000
Si      -1.76740768       0.10577097      -1.97880202       0.00000000
Si       1.16145517      -1.81455939       1.75748027       0.00000000
Si       1.18302639       2.39552595      -2.20483201       0.00000000
Si      -0.02505304      -0.52825212       3.47042126       0.00000000
Si      -3.21246100      -0.13033629       1.82267396       0.00000000
Si      -0.23433949       1.04528043      -3.57211241       0.00000000
Si      -0.92923831      -3.25089756       1.76414742       0.00000000
Si      -2.89327474      -2.31800184       0.97714927       0.00000000
