10
Lattice="16.28999089631971 0.0 0.0 0.0 16.28999089631971 0.0 0.0 0.0 34.474598006748145" Properties=species:S:1:pos:R:3:initial_magmoms:R:1 pbc="T T T"
Si      -0.94843638      -1.75495102      -1.31331055       0.00000000
Si       0.84538584       1.88962371      -1.22781349       0.00000000
Si      -2.40538140       0.26963208       0.71476224       0.00000000
Si       2.69169444      -0.19829817       0.77867818       0.00000000
Si       1.78225632       0.62221284       2.82846997       0.00000000
Si       0.57200706      -2.16971886      -3.01494318       0.00000000
Si      -0.69191775      -3.74208083       0.10249304       0.00000000
Si       0.06185313       1.70049681      -3.44346267       0.00000000
Si       3.21618357       1.65977181      -1.30224419       0.00000000
Si       0.03907971       2.57787621       2.92883941       0.00000000
