10
Lattice="16.28999089631971 0.0 0.0 0.0 16.28999089631971 0.0 0.0 0.0 34.474598006748145" Properties=species:S:1:pos:R:3:initial_magmoms:R:1 pbc="T T T"
Si       0.46141425      -0.54559934       2.25119251       0.00000000
Si       1.88318916       0.83494395      -1.30758776       0.00000000
Si      -1.84951773       1.59852141       0.21894829       0.00000000
Si      -0.86104053      -1.96907248      -1.22743427       0.00000000
Si       0.45651096       2.00173149      -2.69960385       0.00000000
Si       1.08680364      -2.82954761       1.76206664       0.00000000
Si      -2.24871395      -0.73330901      -2.67554057       0.00000000
Si      -0.85253715       3.35075526      -1.22926143       0.00000000
Si      -3.63381749       0.46854927      -1.11132376       0.00000000
Si       2.73789288       2.72789082       0.12107486       0.00000000
