10
Lattice="16.28999089631971 0.0 0.0 0.0 16.28999089631971 0.0 0.0 0.0 34.474598006748145" Properties=species:S:1:pos:R:3:initial_magmoms:R:1 pbc="T T T"
Si       2.07013320       1.06303653      -0.70548857       0.00000000
Si      -0.74516976      -2.26084023       0.66770439       0.00000000
Si      -0.61602264       1.60941942       1.85663051       0.00000000
Si      -0.28859364      -0.13839984      -2.68271129       0.00000000
Si       1.57097502      -2.67147855      -0.05512491       0.00000000
Si       1.27078290       3.39323958      -0.81194619       0.00000000
Si       3.53802510       0.21453930       1.16737949       0.00000000
Si      -0.50430582       3.67816797       0.69145740       0.00000000
Si      -2.10515670       1.61223759      -2.73756041       0.00000000
Si      -2.51067996       2.89028583      -0.61933650       0.00000000
