10
Lattice="16.28999089631971 0.0 0.0 0.0 16.28999089631971 0.0 0.0 0.0 34.474598006748145" Properties=species:S:1:pos:R:3:initial_magmoms:R:1 pbc="T T T"
Si       1.35715248      -1.35584928      -1.35974785       0.00000000
Si      -1.35856971       1.36230012      -1.36009260       0.00000000
Si       1.37670048       1.34366436       1.36784939       0.00000000
Si      -1.34770428      -1.36031274       1.38167371       0.00000000
Si       0.03982905       2.71290402       2.66202652       0.00000000
Si      -2.69177589       0.04725729       2.71042888       0.00000000
Si       2.71016730      -2.71231758      -0.00068949       0.00000000
Si       2.71612944       2.71220355       0.00189610       0.00000000
Si      -2.71588509      -2.71254564       0.00351641       0.00000000
Si      -0.00154755      -2.71267596      -2.71615167       0.00000000
