10
Lattice="16.28999089631971 0.0 0.0 0.0 16.28999089631971 0.0 0.0 0.0 34.474598006748145" Properties=species:S:1:pos:R:3:initial_magmoms:R:1 pbc="T T T"
Si      -1.34931699      -1.34736219       1.36115787       0.00000000
Si       1.32802596      -1.33698546      -1.40269978       0.00000000
Si       1.36467846       1.36365219       1.35884807       0.00000000
Si      -1.37109672       1.26716652      -1.50490323       0.00000000
Si       2.33474796       0.45885672      -2.73616561       0.00000000
Si       0.33300018       2.09259711      -3.05074649       0.00000000
Si      -2.68609068       2.72505670      -0.01521710       0.00000000
Si      -2.71023246      -2.71598283      -0.02891386       0.00000000
Si      -2.70615996       0.00649971       2.72228471       0.00000000
Si       0.00747711      -2.70790299       2.72259498       0.00000000
