10
Lattice="16.28999089631971 0.0 0.0 0.0 16.28999089631971 0.0 0.0 0.0 34.474598006748145" Properties=species:S:1:pos:R:3:initial_magmoms:R:1 pbc="T T T"
Si       1.35731538       1.35650088      -1.35654172       0.00000000
Si      -1.35755973      -1.35726651      -1.35685199       0.00000000
Si      -1.35725022       1.35721764       1.35767938       0.00000000
Si       1.35751086      -1.35760860       1.35850677       0.00000000
Si      -2.71456560       0.00268785       2.71384187       0.00000000
Si       2.71456560      -2.71464705       0.00031027       0.00000000
Si       2.71274112       0.00332316      -2.71680669       0.00000000
Si       0.00115659      -2.71546155       2.71418662       0.00000000
Si      -2.71476108       2.71492398       0.00024132       0.00000000
Si      -2.71520091      -2.71453302       0.00013790       0.00000000
