10
Lattice="16.28999089631971 0.0 0.0 0.0 16.28999089631971 0.0 0.0 0.0 34.474598006748145" Properties=species:S:1:pos:R:3:initial_magmoms:R:1 pbc="T T T"
Si      -1.41978753      -1.00176984      -1.54839296       0.00000000
Si       2.12770206      -0.50784075      -0.86824324       0.00000000
Si      -0.01699047      -1.08651042       2.10191742       0.00000000
Si      -0.44988093       2.35153222       0.26000756       0.00000000
Si      -3.33702279      -1.34107425      -0.28920756       0.00000000
Si      -2.44121940       2.17504473       1.54198068       0.00000000
Si       0.77823846       0.60279516       3.49224426       0.00000000
Si       1.64493162      -2.69749368       2.04637881       0.00000000
Si       3.18018267       1.66487940      -1.33699461       0.00000000
Si       1.71452250      -2.61118926      -2.23736819       0.00000000
