10
Lattice="16.28999089631971 0.0 0.0 0.0 16.28999089631971 0.0 0.0 0.0 34.474598006748145" Properties=species:S:1:pos:R:3:initial_magmoms:R:1 pbc="T T T"
Si       1.24379689      -1.44291314       1.41420051       0.00000000
Si       1.18867153       1.59884395      -1.29123442       0.00000000
Si      -1.49033916       1.26349801       1.41737218       0.00000000
Si      -0.95434150      -2.04811956      -1.27927632       0.00000000
Si      -2.27032168       1.09536892      -2.84969397       0.00000000
Si       2.58154798      -0.09010976       2.79750487       0.00000000
Si       2.67993958       2.72420602       0.11379726       0.00000000
Si      -0.13661283       2.62700359       2.78895517       0.00000000
Si       2.55879085      -2.90080332      -0.07548562       0.00000000
Si      -2.75801170      -2.74901310       0.13251009       0.00000000
