10
Lattice="16.28999089631971 0.0 0.0 0.0 16.28999089631971 0.0 0.0 0.0 34.474598006748145" Properties=species:S:1:pos:R:3:initial_magmoms:R:1 pbc="T T T"
Si      -1.20285360       1.83829392       0.88823851       0.00000000
Si      -1.28772450      -0.75499263      -1.84222012       0.00000000
Si       1.75814712       0.99365742      -1.29655588       0.00000000
Si       0.54784899      -1.64336778       1.72490300       0.00000000
Si       2.61265536       1.34135118       2.03276133       0.00000000
Si       0.32431761       3.56643064       0.16251335       0.00000000
Si       2.55337605       2.68296300       0.09377096       0.00000000
Si       3.42006921      -0.61732584      -1.35209449       0.00000000
Si      -0.89937090      -3.45382209       1.11053085       0.00000000
Si      -3.39895248      -1.41638292      -1.07877972       0.00000000
