10
Lattice="16.28999089631971 0.0 0.0 0.0 16.28999089631971 0.0 0.0 0.0 34.474598006748145" Properties=species:S:1:pos:R:3:initial_magmoms:R:1 pbc="T T T"
Si      -0.79522893      -1.68930558      -1.39032684       0.00000000
Si       0.05927931      -1.34161182       1.93899037       0.00000000
Si      -2.22905844       0.88346764       0.06874239       0.00000000
Si       2.32156935       0.73266786      -0.24259788       0.00000000
Si       1.24369263      -3.13272990       0.86296862       0.00000000
Si       2.81834919       0.63082929       2.13328932       0.00000000
Si      -0.77823846      -0.60279516      -3.49224426       0.00000000
Si      -2.55337605      -2.68296300      -0.09377096       0.00000000
Si       0.86669316      -3.30028884      -1.44586545       0.00000000
Si      -2.10761649       2.60339354       1.64374975       0.00000000
