10
Lattice="16.28999089631971 0.0 0.0 0.0 16.28999089631971 0.0 0.0 0.0 34.474598006748145" Properties=species:S:1:pos:R:3:initial_magmoms:R:1 pbc="T T T"
Si      -1.35514881      -1.35771774       1.35492141       0.00000000
Si      -1.35622395       1.35796698      -1.35723121       0.00000000
Si       1.35840681      -1.35716225      -1.35750700       0.00000000
Si       1.35791811       1.35702216       1.35840334       0.00000000
Si      -0.00750969      -2.70704681       2.71408319       0.00000000
Si      -2.71195920       0.00094482      -2.71401424       0.00000000
Si      -2.71086777      -0.00087966       2.71625509       0.00000000
Si      -2.71329498      -2.71428427      -0.00065502       0.00000000
Si       0.00187335      -2.71350444      -2.71515191       0.00000000
Si      -2.71401174       2.71520091      -0.00020685       0.00000000
