10
Lattice="16.28999089631971 0.0 0.0 0.0 16.28999089631971 0.0 0.0 0.0 34.474598006748145" Properties=species:S:1:pos:R:3:initial_magmoms:R:1 pbc="T T T"
Si      -0.27877077       2.10606242      -1.01596697       0.00000000
Si       1.91282067      -0.44973660      -1.37570960       0.00000000
Si      -2.01917808      -1.14505409      -0.65194949       0.00000000
Si       0.35451927       0.79040546       2.31959015       0.00000000
Si      -1.90335618       1.82273045       2.43011577       0.00000000
Si      -1.30789152      -1.85625920      -2.80678544       0.00000000
Si       2.05473915      -2.75716136      -1.50036982       0.00000000
Si      -1.42480485       1.77327401      -3.12508958       0.00000000
Si      -1.37886705       3.68080043       0.34919340       0.00000000
Si       1.91671398       3.13275596      -1.48340831       0.00000000
