10
Lattice="16.28999089631971 0.0 0.0 0.0 16.28999089631971 0.0 0.0 0.0 34.474598006748145" Properties=species:S:1:pos:R:3:initial_magmoms:R:1 pbc="T T T"
Si      -1.35596331      -1.32608745       1.36547064       0.00000000
Si      -1.35301482       1.35646830      -1.35905836       0.00000000
Si       1.36029645      -1.35812988      -1.35967891       0.00000000
Si       1.34801379       1.37805255       1.38012235       0.00000000
Si       0.03394836      -2.62018134       2.73756041       0.00000000
Si      -2.71016730       2.71231758       0.00068949       0.00000000
Si       2.71314837       2.71337643       0.00565384       0.00000000
Si      -2.71171485      -0.00035838      -2.71546218       0.00000000
Si       0.00333945       2.71432125      -2.71473821       0.00000000
Si      -2.71547784      -2.71479366      -0.00079292       0.00000000
