10
Lattice="16.28999089631971 0.0 0.0 0.0 16.28999089631971 0.0 0.0 0.0 34.474598006748145" Properties=species:S:1:pos:R:3:initial_magmoms:R:1 pbc="T T T"
Si      -2.07013320      -1.06303653       0.70548857       0.00000000
Si       1.30390047       0.46965699      -2.02400478       0.00000000
Si      -0.79935030       2.33020305      -0.10645762       0.00000000
Si       1.46789190      -0.84849723       1.87286806       0.00000000
Si      -2.35872684      -1.20143637      -1.97722272       0.00000000
Si       0.90453483       2.80473075       1.54011905       0.00000000
Si       0.79164513       1.05055839       3.21024189       0.00000000
Si      -0.51860844      -0.49822965      -3.40540269       0.00000000
Si       2.95984413      -1.32431184      -1.84515047       0.00000000
Si      -2.68615584       0.54638289       2.56211908       0.00000000
