10
Lattice="16.28999089631971 0.0 0.0 0.0 16.28999089631971 0.0 0.0 0.0 34.474598006748145" Properties=species:S:1:pos:R:3:initial_magmoms:R:1 pbc="T T T"
Si      -1.35710361      -1.35697329       1.35767938       0.00000000
Si       1.35713619       1.35861858       1.35757595       0.00000000
Si       1.35752715      -1.35913986      -1.35829992       0.00000000
Si      -1.35785295       1.35933534      -1.35940311       0.00000000
Si       2.71371852       2.71510317       0.00013790       0.00000000
Si       0.00006516      -2.71402803       2.71480716       0.00000000
Si       2.71529865      -2.71358820       0.00017237       0.00000000
Si      -2.71573848      -2.71414206      -0.00041370       0.00000000
Si      -2.71497285       0.00097740       2.71504848       0.00000000
Si       2.71502172       0.00053757       2.71501401       0.00000000
