10
Lattice="16.28999089631971 0.0 0.0 0.0 16.28999089631971 0.0 0.0 0.0 34.474598006748145" Properties=species:S:1:pos:R:3:initial_magmoms:R:1 pbc="T T T"
Si       1.46539953      -1.28203929      -1.30176500       0.00000000
Si       1.36287027       1.33516098       1.37656457       0.00000000
Si      -1.35115287      -1.37924172       1.37339291       0.00000000
Si      -1.25365234       1.45241640      -1.53865388       0.00000000
Si      -0.02586852      -2.40740136      -2.70679668       0.00000000
Si      -2.69336321       2.69399133      -0.00028959       0.00000000
Si       2.72148885       2.69407278       0.01044236       0.00000000
Si       0.00814500       2.69355150       2.73610558       0.00000000
Si      -2.70738545      -0.02270826       2.73641585       0.00000000
Si      -2.70487921      -2.74274730       0.00180992       0.00000000
