10
Lattice="16.28999089631971 0.0 0.0 0.0 16.28999089631971 0.0 0.0 0.0 34.474598006748145" Properties=species:S:1:pos:R:3:initial_magmoms:R:1 pbc="T T T"
Si       1.45158561       1.33002963       1.32600897       0.00000000
Si      -1.28953269      -1.49789808       1.33752693       0.00000000
Si       0.60141051      -0.90958473      -2.12801470       0.00000000
Si      -0.29874231       1.45098288      -2.01893701       0.00000000
Si      -2.63059065       1.75759326      -1.89169120       0.00000000
Si       0.00770517       2.55370185       2.77903479       0.00000000
Si      -2.82331764      -2.58576057      -0.14758584       0.00000000
Si      -2.69252523      -0.17308125       2.78522988       0.00000000
Si       3.59241741      -0.05712903      -1.48775211       0.00000000
Si       2.72924289      -0.16967664       2.77492197       0.00000000
