10
Lattice="16.28999089631971 0.0 0.0 0.0 16.28999089631971 0.0 0.0 0.0 34.474598006748145" Properties=species:S:1:pos:R:3:initial_magmoms:R:1 pbc="T T T"
Si       1.35817875      -1.35526284       1.35995470       0.00000000
Si      -1.35573525       1.36173947       1.35923074       0.00000000
Si       1.37342619       1.36396170      -1.35291843       0.00000000
Si      -1.36531377      -1.34710155      -1.38372150       0.00000000
Si       0.07856667      -2.57077377      -2.83674733       0.00000000
Si      -2.71637379      -2.70892926      -0.00017237       0.00000000
Si       0.00107514      -2.71213839       2.71677221       0.00000000
Si      -2.71430496       0.00289962       2.71677221       0.00000000
Si       2.71528236       2.71663510       0.00368878       0.00000000
Si       2.71857294      -2.71404432       0.00062054       0.00000000
