10
Lattice="16.28999089631971 0.0 0.0 0.0 16.28999089631971 0.0 0.0 0.0 34.474598006748145" Properties=species:S:1:pos:R:3:initial_magmoms:R:1 pbc="T T T"
Si      -2.12770206       0.50784075       0.86824324       0.00000000
Si       1.24129800      -1.15465149       1.67594904       0.00000000
Si       1.05248061       2.17272015      -0.46875137       0.00000000
Si      -0.41317956      -2.10334851      -1.36912495       0.00000000
Si       3.02383125       1.74217545       0.81232541       0.00000000
Si      -3.54748959      -0.49392909      -0.68014972       0.00000000
Si      -0.48277044      -2.18965293       2.91462204       0.00000000
Si      -2.14469253      -0.57866967       2.97016065       0.00000000
Si       2.46503538       0.46592658       2.77920575       0.00000000
Si       2.59897176      -2.70723510       0.50956932       0.00000000
