10
Lattice="16.28999089631971 0.0 0.0 0.0 16.28999089631971 0.0 0.0 0.0 34.474598006748145" Properties=species:S:1:pos:R:3:initial_magmoms:R:1 pbc="T T T"
Si      -0.37699947      -0.16755894      -2.30883407       0.00000000
Si      -0.98525178      -1.89092691       0.98032022       0.00000000
Si       2.33994447       0.25840827       0.33216294       0.00000000
Si      -1.18441332       1.79111808       1.07602175       0.00000000
Si       2.56253103      -1.98229752      -0.35843260       0.00000000
Si       0.63641772       1.98793386       2.58880243       0.00000000
Si      -2.03892156       1.44342432      -2.25329546       0.00000000
Si       2.20680630       0.21642894       2.65716560       0.00000000
Si      -1.24369263       3.13272990      -0.86296862       0.00000000
Si      -3.24921969      -1.19360088       0.76816342       0.00000000
