10
Lattice="16.28999089631971 0.0 0.0 0.0 16.28999089631971 0.0 0.0 0.0 34.474598006748145" Properties=species:S:1:pos:R:3:initial_magmoms:R:1 pbc="T T T"
Si       1.35734796      -1.35078083       1.35871362       0.00000000
Si      -1.35720135      -1.35588133      -1.35702436       0.00000000
Si       1.35764726       1.35875053      -1.35681751       0.00000000
Si      -1.35348723       1.35946729       1.36564301       0.00000000
Si      -2.71419093      -2.71356118       0.00168926       0.00000000
Si       0.00021177      -2.71370779      -2.71466926       0.00000000
Si       2.71507126       0.00163226      -2.71439347       0.00000000
Si       2.71503054      -2.71453858       0.00003447       0.00000000
Si      -2.71518462       0.00188150      -2.71446241       0.00000000
Si       0.00000000       2.71692928      -2.71446241       0.00000000
