10
Lattice="16.28999089631971 0.0 0.0 0.0 16.28999089631971 0.0 0.0 0.0 34.474598006748145" Properties=species:S:1:pos:R:3:initial_magmoms:R:1 pbc="T T T"
Si      -1.34426709      -1.35179307      -1.40163451       0.00000000
Si       1.36733373       1.36119240      -1.40256533       0.00000000
Si      -1.51234731       1.40359527       1.42356037       0.00000000
Si       1.33040430      -1.50438150       1.52460547       0.00000000
Si       2.71550783      -2.70623978      -0.03961134       0.00000000
Si      -2.72515410      -2.69817297      -0.01272113       0.00000000
Si       2.72022867       2.71862181      -0.02713152       0.00000000
Si      -2.71386513       2.74154184      -0.05136718       0.00000000
Si      -2.70645318       0.00480555      -2.76582959       0.00000000
Si       0.00922014      -2.71126036      -2.76727753       0.00000000
