10
Lattice="16.28999089631971 0.0 0.0 0.0 16.28999089631971 0.0 0.0 0.0 34.474598006748145" Properties=species:S:1:pos:R:3:initial_magmoms:R:1 pbc="T T T"
Si       1.12008967      -1.88592588      -0.86520947       0.00000000
Si       0.97438376       2.14646814      -0.27665880       0.00000000
Si       0.21295917      -0.23527647       2.35916701       0.00000000
Si      -1.90104300       0.21703167      -1.44083215       0.00000000
Si      -0.12722490       0.78822423      -3.11364401       0.00000000
Si      -0.24513192       3.09591450       1.52832873       0.00000000
Si       1.02597582      -1.27563732      -3.16277034       0.00000000
Si       2.42887877      -1.13992533       2.35778802       0.00000000
Si      -3.69745533      -0.43750053       0.25914570       0.00000000
Si       3.18286142      -2.07146898       0.33950603       0.00000000
