10
Lattice="16.28999089631971 0.0 0.0 0.0 16.28999089631971 0.0 0.0 0.0 34.474598006748145" Properties=species:S:1:pos:R:3:initial_magmoms:R:1 pbc="T T T"
Si       0.14191848      -2.30742476      -0.12466022       0.00000000
Si       2.09052828       0.49530136       0.97776910       0.00000000
Si      -1.91282067       0.44973660       1.37570960       0.00000000
Si      -0.07887618       1.03402143      -2.19758448       0.00000000
Si      -2.19159144       2.55579902       0.35974263       0.00000000
Si       2.03396940       2.80370024       0.81859979       0.00000000
Si       0.00389331       3.58249256      -0.10769870       0.00000000
Si      -2.28247335       0.36910273      -2.74955758       0.00000000
Si       3.48045624      -0.63082538      -0.64450297       0.00000000
Si       2.40614703      -2.76971867      -0.65870651       0.00000000
