10
Lattice="16.28999089631971 0.0 0.0 0.0 16.28999089631971 0.0 0.0 0.0 34.474598006748145" Properties=species:S:1:pos:R:3:initial_magmoms:R:1 pbc="T T T"
Si       1.34076704       1.35855342       1.37719891       0.00000000
Si      -1.36906047      -1.35953082       1.37413066       0.00000000
Si      -1.49723019       1.14598521      -1.43523692       0.00000000
Si       1.43971087      -1.24157493      -1.53836429       0.00000000
Si      -0.29848167      -2.40336144      -2.57623851       0.00000000
Si      -2.20025772      -0.76067784      -2.86815857       0.00000000
Si      -0.16869924       2.55518424      -2.74542893       0.00000000
Si       2.69336321      -2.69399133       0.00028959       0.00000000
Si       2.69847827       2.70580158      -0.01476893       0.00000000
Si       2.70150821      -0.00043983       2.73639517       0.00000000
