10
Lattice="16.28999089631971 0.0 0.0 0.0 16.28999089631971 0.0 0.0 0.0 34.474598006748145" Properties=species:S:1:pos:R:3:initial_magmoms:R:1 pbc="T T T"
Si      -1.35791811      -1.35702216      -1.35840334       0.00000000
Si       1.35804843       1.35842310      -1.35805860       0.00000000
Si      -1.35812988       1.35887922       1.35754148       0.00000000
Si       1.36218609      -1.35659862       1.36419508       0.00000000
Si      -2.71306692      -2.71473990      -0.00348194       0.00000000
Si      -2.71414206       0.00094482      -2.71563455       0.00000000
Si       0.00048870      -2.71418441      -2.71591035       0.00000000
Si      -2.71495656       2.71541268      -0.00258560       0.00000000
Si       0.00071676       2.71515204      -2.71625509       0.00000000
Si       2.71567332       0.00086337      -2.71591035       0.00000000
