10
Lattice="16.28999089631971 0.0 0.0 0.0 16.28999089631971 0.0 0.0 0.0 34.474598006748145" Properties=species:S:1:pos:R:3:initial_magmoms:R:1 pbc="T T T"
Si      -1.35770634       1.35731538       1.35578327       0.00000000
Si       1.35840566       1.35601218      -1.35681751       0.00000000
Si      -1.35666378      -1.35861858      -1.35643829       0.00000000
Si       1.35907470      -1.36065483       1.36488457       0.00000000
Si      -2.71210581       2.71301805       0.00096529       0.00000000
Si       0.00120546       2.71365336      -2.71418662       0.00000000
Si      -2.71399545      -0.00188964      -2.71463479       0.00000000
Si       2.71560557      -0.00125433      -2.71470374       0.00000000
Si       0.00096111      -2.71617831      -2.71429004       0.00000000
Si      -2.71471221      -2.71704168       0.00162031       0.00000000
