10
Lattice="16.28999089631971 0.0 0.0 0.0 16.28999089631971 0.0 0.0 0.0 34.474598006748145" Properties=species:S:1:pos:R:3:initial_magmoms:R:1 pbc="T T T"
Si      -1.26684072       1.36327752      -1.42831787       0.00000000
Si       1.10008392       1.84155192       1.12487229       0.00000000
Si       1.45478889      -1.35472527      -1.40652991       0.00000000
Si      -2.02220802      -0.67839705       1.36726332       0.00000000
Si      -2.46785355       2.83382469       0.01272113       0.00000000
Si      -2.61488709       0.00581553      -2.79106501       0.00000000
Si      -2.77778709      -2.66975181       0.04416198       0.00000000
Si       0.10189395      -2.71215468      -2.78196372       0.00000000
Si       0.09834897       2.72205900      -2.78754860       0.00000000
Si      -0.55208439       3.64953015       1.28690299       0.00000000
