10
Lattice="16.28999089631971 0.0 0.0 0.0 16.28999089631971 0.0 0.0 0.0 34.474598006748145" Properties=species:S:1:pos:R:3:initial_magmoms:R:1 pbc="T T T"
Si       0.16446384       0.34661862       2.32907067       0.00000000
Si      -2.22692445       0.22317300      -0.87400050       0.00000000
Si       0.88073514      -2.34012366      -0.19195467       0.00000000
Si       0.96005115       2.41707762      -0.36784417       0.00000000
Si      -0.23451084       2.62211985       2.12305036       0.00000000
Si      -0.91567719      -2.99465586       1.50802318       0.00000000
Si       2.65455324      -1.76893110      -1.86476652       0.00000000
Si       2.53664622       0.53875917       2.77720622       0.00000000
Si       2.48546304       1.92582009      -2.14394197       0.00000000
Si      -3.60364122       1.25804412       0.78453887       0.00000000
