10
Lattice="16.28999089631971 0.0 0.0 0.0 16.28999089631971 0.0 0.0 0.0 34.474598006748145" Properties=species:S:1:pos:R:3:initial_magmoms:R:1 pbc="T T T"
Si       0.80299195       1.88387334      -1.31634431       0.00000000
Si      -1.91576916      -0.81570546      -1.27418185       0.00000000
Si       1.65216831      -1.80797823      -0.16203070       0.00000000
Si      -0.38470464      -1.39773087       2.89979796       0.00000000
Si       2.02189755       0.43662087      -2.72318449       0.00000000
Si      -0.71475633      -2.28625263      -2.71522086       0.00000000
Si       3.39298613      -0.88495425      -1.36391928       0.00000000
Si       1.97257958      -0.94172490       3.11009312       0.00000000
Si       0.55208439      -3.64953015      -1.28690299       0.00000000
Si       1.83448762       3.49858701       0.11187013       0.00000000
