10
Lattice="16.28999089631971 0.0 0.0 0.0 16.28999089631971 0.0 0.0 0.0 34.474598006748145" Properties=species:S:1:pos:R:3:initial_magmoms:R:1 pbc="T T T"
Si       1.20101283      -1.47054717      -1.44103900       0.00000000
Si      -1.48511043       1.25749026      -1.42400854       0.00000000
Si       1.91576916       0.81570546       1.27418185       0.00000000
Si      -1.74172680      -0.94555305       1.45241563       0.00000000
Si       2.46785355      -2.83382469      -0.01272113       0.00000000
Si       0.44564553      -3.51222174       1.35454219       0.00000000
Si       2.56620252      -0.11176569      -2.80026974       0.00000000
Si      -0.14156010       2.59442685      -2.80623385       0.00000000
Si       2.71876111       2.69957880      -0.04216246       0.00000000
Si       3.56793747      -0.99227277       1.11215115       0.00000000
