10
Lattice="16.28999089631971 0.0 0.0 0.0 16.28999089631971 0.0 0.0 0.0 34.474598006748145" Properties=species:S:1:pos:R:3:initial_magmoms:R:1 pbc="T T T"
Si       1.12883414      -0.96053985      -1.82198352       0.00000000
Si       0.45191718       2.30379696       0.29393059       0.00000000
Si      -2.28299463      -0.51572511      -0.36270745       0.00000000
Si       0.47301273      -0.73344096       2.20806476       0.00000000
Si      -0.89801883       2.81960352       2.20423808       0.00000000
Si      -1.18765503      -2.47586823       2.50633915       0.00000000
Si      -0.98187975       0.82774377       3.51254980       0.00000000
Si      -2.38457907      -1.07712738      -2.67416159       0.00000000
Si      -0.65726892       3.39571566      -1.48158115       0.00000000
Si       0.38657799      -3.16048806      -2.02000572       0.00000000
