10
Lattice="16.28999089631971 0.0 0.0 0.0 16.28999089631971 0.0 0.0 0.0 34.474598006748145" Properties=species:S:1:pos:R:3:initial_magmoms:R:1 pbc="T T T"
Si      -1.61829747       1.45122723       0.92174784       0.00000000
Si       2.28299463       0.51572511       0.36270745       0.00000000
Si      -0.10158444      -0.56140227      -2.31145414       0.00000000
Si      -0.69375852      -1.98317718       1.25884065       0.00000000
Si      -3.02534622       1.30370499      -1.01675989       0.00000000
Si       0.29739024      -2.83690350      -2.10543383       0.00000000
Si       1.09533960      -1.96014312       2.86904660       0.00000000
Si      -2.29985478      -0.04274496      -2.85604967       0.00000000
Si      -1.68989202       0.49101318       3.23499466       0.00000000
Si       3.41182877      -0.44481474      -1.45927607       0.00000000
