10
Lattice="16.28999089631971 0.0 0.0 0.0 16.28999089631971 0.0 0.0 0.0 34.474598006748145" Properties=species:S:1:pos:R:3:initial_magmoms:R:1 pbc="T T T"
Si       1.69903071      -0.27028368       1.52812189       0.00000000
Si       0.08386092       1.99185975      -1.30831173       0.00000000
Si       1.45489248      -1.56118473      -1.30448504       0.00000000
Si      -2.99100690      -0.85245570      -0.64026259       0.00000000
Si       0.37049976      -1.67948271       2.83831390       0.00000000
Si      -0.20577528      -3.30361200      -1.00621065       0.00000000
Si       0.98187975      -0.82774377      -3.51254980       0.00000000
Si      -2.13107409       2.21284989      -2.22757740       0.00000000
Si      -2.14083180       1.38715866       2.81376107       0.00000000
Si       1.43379693       1.47605319      -3.21861922       0.00000000
