10
Lattice="16.28999089631971 0.0 0.0 0.0 16.28999089631971 0.0 0.0 0.0 34.474598006748145" Properties=species:S:1:pos:R:3:initial_magmoms:R:1 pbc="T T T"
Si       1.35698958       1.35767985      -1.35871362       0.00000000
Si      -1.35843939      -1.35721764      -1.35871362       0.00000000
Si       1.36099692      -1.36357074       1.35147395       0.00000000
Si      -1.36691019       1.36555812       1.35543853       0.00000000
Si       2.71322982      -2.71350675      -0.00330956       0.00000000
Si      -2.71451673      -2.71308321      -0.00155136       0.00000000
Si       2.71419093       2.71356118      -0.00168926       0.00000000
Si      -2.71454931       2.71488718      -0.00372326       0.00000000
Si       2.71440270      -0.00014661      -2.71635852       0.00000000
Si      -0.00071676      -2.71477737      -2.71625509       0.00000000
