10
Lattice="16.28999089631971 0.0 0.0 0.0 16.28999089631971 0.0 0.0 0.0 34.474598006748145" Properties=species:S:1:pos:R:3:initial_magmoms:R:1 pbc="T T T"
Si      -1.35223290       1.34993601       1.35478351       0.00000000
Si       1.35826970       1.35560493      -1.35588670       0.00000000
Si      -1.35553977      -1.35874890      -1.35588670       0.00000000
Si       1.35552972      -1.35625653       1.36074762       0.00000000
Si       0.00117288       2.71336014      -2.71304896       0.00000000
Si      -2.71322982       2.71350675       0.00330956       0.00000000
Si      -2.71394658      -0.00127062      -2.71294553       0.00000000
Si       2.71599165       2.71252935       0.00165478       0.00000000
Si       2.71590368      -0.00131949      -2.71270421       0.00000000
Si       0.00120546      -2.71616202      -2.71273868       0.00000000
