10
Lattice="16.28999089631971 0.0 0.0 0.0 16.28999089631971 0.0 0.0 0.0 34.474598006748145" Properties=species:S:1:pos:R:3:initial_magmoms:R:1 pbc="T T T"
Si      -0.74508831       2.10974170       0.65774122       0.00000000
Si      -1.74472416      -1.58928498      -0.33954051       0.00000000
Si       1.68645483      -0.57866967       1.71356085       0.00000000
Si      -0.41658417       1.86588918      -1.90175779       0.00000000
Si       1.01713131      -2.84107374       2.18569074       0.00000000
Si      -2.96201070       1.81291410      -1.40673676       0.00000000
Si      -3.20471541      -0.50116185      -1.99949333       0.00000000
Si       3.76312588      -1.08172116       0.61033862       0.00000000
Si       1.84533120       2.81866100      -2.20354859       0.00000000
Si      -2.83470435      -2.06998659       2.01297290       0.00000000
