10
Lattice="16.28999089631971 0.0 0.0 0.0 16.28999089631971 0.0 0.0 0.0 34.474598006748145" Properties=species:S:1:pos:R:3:initial_magmoms:R:1 pbc="T T T"
Si       2.28318101      -0.34795440       0.62292186       0.00000000
Si      -1.07430921      -2.13889329      -0.01420354       0.00000000
Si       0.11147247       0.66282171      -2.30245626       0.00000000
Si      -1.38992796       1.12612674       1.62227207       0.00000000
Si      -3.48045624       0.63082538       0.64450297       0.00000000
Si       0.03487689      -3.23081199       1.76130820       0.00000000
Si       1.63288746      -0.95750991      -3.21717128       0.00000000
Si      -3.33853776      -1.67659938       0.51984275       0.00000000
Si       2.33829008      -2.49807150       1.77251245       0.00000000
Si       3.05027711       1.59934961       1.79454173       0.00000000
