10
Lattice="16.28999089631971 0.0 0.0 0.0 16.28999089631971 0.0 0.0 0.0 34.474598006748145" Properties=species:S:1:pos:R:3:initial_magmoms:R:1 pbc="T T T"
Si       0.52097049      -1.88882550       1.27921515       0.00000000
Si       0.50744979      -0.63446292      -2.19637787       0.00000000
Si       1.27263996       2.03823738       0.15641134       0.00000000
Si      -2.35753278      -0.28113282       0.71848550       0.00000000
Si      -0.23547195      -1.08869328       3.44518640       0.00000000
Si      -0.32578371      -3.59663652      -0.37518726       0.00000000
Si       0.53805870       2.95036335       2.18369121       0.00000000
Si      -0.55159569      -2.68258833      -2.56049877       0.00000000
Si      -0.65049228       0.72835848      -3.63507259       0.00000000
Si       0.74580507       3.54476916      -1.57993724       0.00000000
