10
Lattice="16.28999089631971 0.0 0.0 0.0 16.28999089631971 0.0 0.0 0.0 34.474598006748145" Properties=species:S:1:pos:R:3:initial_magmoms:R:1 pbc="T T T"
Si      -1.35663446      -1.35508365       1.35788623       0.00000000
Si       1.35681039      -1.35718506      -1.35747253       0.00000000
Si      -1.35793929       1.35741312      -1.35723121       0.00000000
Si       1.35744570       1.36003581       1.35623144       0.00000000
Si      -0.00335574       2.71407690       2.71442794       0.00000000
Si       2.71445157       0.00008145      -2.71446241       0.00000000
Si      -0.00022806      -2.71423980      -2.71480716       0.00000000
Si      -2.71509932       0.00037467      -2.71404872       0.00000000
Si       0.00081450       2.71448415      -2.71477269       0.00000000
Si       2.71476108       2.71456560       0.00006895       0.00000000
