10
Lattice="16.28999089631971 0.0 0.0 0.0 16.28999089631971 0.0 0.0 0.0 34.474598006748145" Properties=species:S:1:pos:R:3:initial_magmoms:R:1 pbc="T T T"
Si      -1.34407161       1.40757003       1.32875517       0.00000000
Si       1.34770428       1.36031274      -1.38167371       0.00000000
Si      -1.36818081      -1.35223290      -1.37815730       0.00000000
Si       1.48312305      -1.22248305       1.48961374       0.00000000
Si       2.70190827      -2.67809229      -0.01689256       0.00000000
Si       2.72440476       2.70397710      -0.01382432       0.00000000
Si      -2.73018445      -2.71173114      -0.00075844       0.00000000
Si      -2.71516019       2.72914515      -0.03051004       0.00000000
Si       2.70485676       0.00446346      -2.74142157       0.00000000
Si      -0.00910611      -2.70967860      -2.74086997       0.00000000
