10
Lattice="16.28999089631971 0.0 0.0 0.0 16.28999089631971 0.0 0.0 0.0 34.474598006748145" Properties=species:S:1:pos:R:3:initial_magmoms:R:1 pbc="T T T"
Si      -0.45615258      -2.29664565      -0.30306636       0.00000000
Si      -0.57596553       1.12218552      -2.00862910       0.00000000
Si       2.39524902       0.13471830       0.34026447       0.00000000
Si      -0.99878877       0.73567269       2.10543383       0.00000000
Si       2.56748319       2.30537709       1.17120617       0.00000000
Si       0.67727304      -0.17959725      -3.61845583       0.00000000
Si       0.54737658       2.73298959       2.44976630       0.00000000
Si      -0.32527872      -3.31377696       1.84652945       0.00000000
Si      -2.91050661       0.82228662      -2.33889593       0.00000000
Si      -2.80816957      -2.60799642      -0.71231454       0.00000000
