10
Lattice="16.28999089631971 0.0 0.0 0.0 16.28999089631971 0.0 0.0 0.0 34.474598006748145" Properties=species:S:1:pos:R:3:initial_magmoms:R:1 pbc="T T T"
Si      -1.52000524       1.30616478      -1.31341397       0.00000000
Si      -1.19130562      -0.76434309       2.06206476       0.00000000
Si       1.26688959      -1.57284837      -1.54566947       0.00000000
Si       1.98317718       1.57221306       0.30641040       0.00000000
Si       2.35439370       0.46069749       2.27497999       0.00000000
Si       0.43715844       0.12139308       3.53416539       0.00000000
Si       0.03533301       2.43268818      -2.68309051       0.00000000
Si      -2.55150091      -0.30854889      -2.74162841       0.00000000
Si      -1.38191328      -3.13414713       1.68480902       0.00000000
Si       3.15113760      -1.64618595       1.59420973       0.00000000
