10
Lattice="16.28999089631971 0.0 0.0 0.0 16.28999089631971 0.0 0.0 0.0 34.474598006748145" Properties=species:S:1:pos:R:3:initial_magmoms:R:1 pbc="T T T"
Si      -0.11681805      -1.58680890       1.72231740       0.00000000
Si      -0.92226081       2.16576269       0.35391642       0.00000000
Si      -0.65052732      -1.67886369      -1.67291528       0.00000000
Si       2.24879035       0.80369973      -0.59113626       0.00000000
Si       3.05460778      -1.29617901      -1.30403687       0.00000000
Si      -1.66990665       2.70181772      -1.86528364       0.00000000
Si       1.09404438      -0.67891833       3.49858758       0.00000000
Si       1.42614373      -2.18191518      -2.77613751       0.00000000
Si       0.70180236       3.50193365       1.47203168       0.00000000
Si       1.21754050      -3.45165552       1.30486426       0.00000000
