10
Lattice="16.28999089631971 0.0 0.0 0.0 16.28999089631971 0.0 0.0 0.0 34.474598006748145" Properties=species:S:1:pos:R:3:initial_magmoms:R:1 pbc="T T T"
Si       1.91723526       0.33930441      -1.25918540       0.00000000
Si      -0.80581743       2.09987874       0.71290061       0.00000000
Si      -1.62846406      -0.88573617      -1.47210063       0.00000000
Si       0.27416070      -1.49408622       1.84546074       0.00000000
Si      -0.43715844      -0.12139308      -3.53416539       0.00000000
Si      -3.05460778       1.29617901       1.30403687       0.00000000
Si       3.33702279       1.34107425       0.28920756       0.00000000
Si      -3.70513511      -0.38268468      -0.36887840       0.00000000
Si       2.71397916      -1.76757903      -1.93995566       0.00000000
Si      -1.04969502       3.38323982      -1.32055021       0.00000000
