10
Lattice="16.28999089631971 0.0 0.0 0.0 16.28999089631971 0.0 0.0 0.0 34.51530692428229" Properties=species:S:1:pos:R:3:initial_magmoms:R:1 pbc="T T T"
Si       0.56957985      -1.84288770       1.25042124       0.00000000
Si      -2.00988368      -0.44427717      -1.15533151       0.00000000
Si       1.75671360       0.12562848      -1.59764542       0.00000000
Si      -0.45103752       1.65833829       1.65035032       0.00000000
Si       0.80179380      -1.17672444      -3.29983776       0.00000000
Si       0.97907787       3.34091514       0.97619697       0.00000000
Si      -3.01052951       1.65333726      -1.13848804       0.00000000
Si      -2.76847640       2.08495710       1.23878957       0.00000000
Si       2.87282295      -1.71965385       1.69556540       0.00000000
Si      -1.51823452      -1.53885114      -3.16912822       0.00000000
