10
Lattice="16.28999089631971 0.0 0.0 0.0 16.28999089631971 0.0 0.0 0.0 34.51530692428229" Properties=species:S:1:pos:R:3:initial_magmoms:R:1 pbc="T T T"
Si       2.09940633      -0.97150302       0.39119671       0.00000000
Si      -0.95491980      -1.30235292      -1.70219234       0.00000000
Si       0.58782465       2.10805632      -0.89518950       0.00000000
Si      -1.75671360      -0.12562848       1.59764542       0.00000000
Si       2.17727253       0.06089202       2.49887510       0.00000000
Si       0.73754604       1.46137590      -3.20585253       0.00000000
Si      -1.03726575       3.46346644       0.18458796       0.00000000
Si      -1.18713375      -1.96851618       2.84806666       0.00000000
Si       0.22305897      -3.34948464      -1.63965057       0.00000000
Si      -3.76659728      -0.56990565       0.44231391       0.00000000
