10
Lattice="16.28999089631971 0.0 0.0 0.0 16.28999089631971 0.0 0.0 0.0 34.51530692428229" Properties=species:S:1:pos:R:3:initial_magmoms:R:1 pbc="T T T"
Si      -1.32020839      -1.73977200       0.67484366       0.00000000
Si      -0.87129508       1.79266304       1.30944245       0.00000000
Si       2.21566806      -0.63441405       0.72361381       0.00000000
Si      -0.55206810       0.26433783      -2.34258971       0.00000000
Si      -0.65134750      -3.49171263      -0.68861527       0.00000000
Si       3.46170645       1.17165825      -0.16484520       0.00000000
Si       0.39104145       3.61544237       0.62814442       0.00000000
Si       0.87804729       1.94691468      -3.01674306       0.00000000
Si      -0.98347617      -2.24461539       2.98371189       0.00000000
Si      -3.59312507      -1.55253474       0.24719877       0.00000000
