10
Lattice="16.28999089631971 0.0 0.0 0.0 16.28999089631971 0.0 0.0 0.0 34.51530692428229" Properties=species:S:1:pos:R:3:initial_magmoms:R:1 pbc="T T T"
Si      -1.23772234      -1.88428059       0.75495373       0.00000000
Si      -1.02033392       1.36873208       1.66774605       0.00000000
Si       2.31847425      -0.16167825       0.67843325       0.00000000
Si      -0.28596281       0.38147663      -2.38621708       0.00000000
Si      -1.04585710      -0.51825006       3.08535953       0.00000000
Si      -0.39814389      -3.65580180      -0.71194763       0.00000000
Si      -2.61864098       0.75818777      -2.69885690       0.00000000
Si       3.07398816      -2.25122913      -0.56984804       0.00000000
Si      -3.24803771       1.87409024       1.00940072       0.00000000
Si       0.97637373       2.20425596      -3.06751510       0.00000000
