10
Lattice="16.28999089631971 0.0 0.0 0.0 16.28999089631971 0.0 0.0 0.0 34.51530692428229" Properties=species:S:1:pos:R:3:initial_magmoms:R:1 pbc="T T T"
Si      -0.33673222       0.50484339      -2.30886823       0.00000000
Si       2.21902380      -0.47601009       0.82577918       0.00000000
Si      -1.07607944      -2.05099245       0.76965726       0.00000000
Si      -0.83957845       1.77152121       1.46690136       0.00000000
Si       2.36784924      -2.69503389      -0.47758857       0.00000000
Si       0.39814389       3.65580180       0.71194763       0.00000000
Si       3.47213205       1.40457267       0.14209960       0.00000000
Si      -3.15948527       1.87150923       0.98889861       0.00000000
Si      -2.60964890       0.69208065      -2.73651312       0.00000000
Si       0.98347617       2.24461539      -2.98371189       0.00000000
