10
Lattice="16.28999089631971 0.0 0.0 0.0 16.28999089631971 0.0 0.0 0.0 34.51530692428229" Properties=species:S:1:pos:R:3:initial_magmoms:R:1 pbc="T T T"
Si       1.35527913      -1.35653346       1.36304475       0.00000000
Si      -1.36101321       1.35787576       1.36135350       0.00000000
Si       1.34384355       1.36020523      -1.38263565       0.00000000
Si      -1.34747622      -1.37189560      -1.38253210       0.00000000
Si       2.56587048      -0.10939387      -2.84213692       0.00000000
Si       2.71197549      -2.71121053       0.00590212       0.00000000
Si      -2.71822433      -2.71047748       0.00079385       0.00000000
Si       2.71036278       2.72045281       0.00148416       0.00000000
Si       2.71221984       0.00115170       2.71956610       0.00000000
Si      -0.00306252      -2.71340968       2.71953158       0.00000000
