10
Lattice="16.28999089631971 0.0 0.0 0.0 16.28999089631971 0.0 0.0 0.0 34.51530692428229" Properties=species:S:1:pos:R:3:initial_magmoms:R:1 pbc="T T T"
Si       0.54201717       2.12553549      -0.79602697       0.00000000
Si      -2.10230595      -0.64350387      -1.00229056       0.00000000
Si       1.44819729      -2.05351903       0.44807796       0.00000000
Si       1.76228478       0.61403526      -2.39066955       0.00000000
Si       2.98594071      -0.88796790      -1.04788530       0.00000000
Si      -0.93716859      -2.12911440      -2.40309507       0.00000000
Si       0.24337260      -3.60685754      -0.91517387       0.00000000
Si       0.41399406      -0.76349601      -3.77041972       0.00000000
Si       1.73397276       3.54371031       0.99086598       0.00000000
Si      -3.32188028      -2.44001394       0.31018924       0.00000000
