10
Lattice="16.28999089631971 0.0 0.0 0.0 16.28999089631971 0.0 0.0 0.0 34.51530692428229" Properties=species:S:1:pos:R:3:initial_magmoms:R:1 pbc="T T T"
Si      -1.73157813      -0.82427400      -1.43808107       0.00000000
Si       1.90478970      -1.62207675      -0.07790109       0.00000000
Si       1.01950965       1.91695833      -1.29960558       0.00000000
Si      -0.88137045      -1.15181703       2.32443464       0.00000000
Si       1.41737661      -1.92697831       2.28315431       0.00000000
Si      -0.23385924      -2.08093510      -2.77920858       0.00000000
Si       2.47821399       0.66090159      -2.78079629       0.00000000
Si       1.04976018       1.28446650       3.42450712       0.00000000
Si      -3.26932155      -1.98982513       0.05788220       0.00000000
Si       1.10794806      -3.52943117      -1.22032387       0.00000000
