10
Lattice="16.28999089631971 0.0 0.0 0.0 16.28999089631971 0.0 0.0 0.0 34.51530692428229" Properties=species:S:1:pos:R:3:initial_magmoms:R:1 pbc="T T T"
Si      -2.21708529       0.26562311      -0.66000207       0.00000000
Si       1.18320786       1.45523783      -1.40943335       0.00000000
Si       0.74935629      -2.05668159      -1.06752452       0.00000000
Si      -1.91493837       2.17061318       0.84652289       0.00000000
Si       0.98657127       1.06634666       2.88610255       0.00000000
Si       0.33335856      -1.41125550      -3.33673465       0.00000000
Si       3.53232360      -0.25514864       0.94575445       0.00000000
Si       3.04743546      -1.99412799      -0.51645283       0.00000000
Si       3.15522639       1.92453644      -0.19801443       0.00000000
Si      -0.60461964      -3.79531329      -0.21786074       0.00000000
