10
Lattice="16.28999089631971 0.0 0.0 0.0 16.28999089631971 0.0 0.0 0.0 34.51530692428229" Properties=species:S:1:pos:R:3:initial_magmoms:R:1 pbc="T T T"
Si      -1.34206794      -1.36428750      -1.39738750       0.00000000
Si       1.37461536       1.35185823      -1.39548915       0.00000000
Si       1.26361530      -1.46342844       1.46117182       0.00000000
Si      -1.39668831       1.38357486       1.61624918       0.00000000
Si      -2.68640019       2.69215056      -0.02360848       0.00000000
Si      -2.71112841      -2.70265761      -0.02008792       0.00000000
Si       2.71958292       2.70397710      -0.01356452       0.00000000
Si       2.72231964      -2.71948518      -0.02001889       0.00000000
Si      -2.70194085      -0.00733050      -2.75528946       0.00000000
Si       0.01239669       2.70726768      -2.75642847       0.00000000
