10
Lattice="16.28999089631971 0.0 0.0 0.0 16.28999089631971 0.0 0.0 0.0 34.51530692428229" Properties=species:S:1:pos:R:3:initial_magmoms:R:1 pbc="T T T"
Si       1.50327378      -1.69717365      -0.49878098       0.00000000
Si       1.31790987       1.87484868       0.54268447       0.00000000
Si      -1.19609325      -1.01208141       1.78440785       0.00000000
Si      -1.00449027       0.41762673      -2.15265187       0.00000000
Si      -1.48968792       2.68038918      -1.80511705       0.00000000
Si       0.60023763       3.45778056      -1.01937564       0.00000000
Si       0.65782278      -2.63572200      -2.46263401       0.00000000
Si       3.48048882       0.92839968       0.76099391       0.00000000
Si      -3.43684791      -0.57850677       1.29301315       0.00000000
Si      -0.70648101      -3.29035194       1.81550616       0.00000000
