10
Lattice="16.28999089631971 0.0 0.0 0.0 16.28999089631971 0.0 0.0 0.0 34.51530692428229" Properties=species:S:1:pos:R:3:initial_magmoms:R:1 pbc="T T T"
Si      -1.64462211       0.37022283       1.53890033       0.00000000
Si       1.54233720       1.38416130       1.11494858       0.00000000
Si      -0.40076658       1.12536207      -2.04372150       0.00000000
Si      -0.40990527      -2.38829319      -0.33365966       0.00000000
Si       1.83084939      -2.82186783       0.15773504       0.00000000
Si      -3.56120251      -0.39065049       0.45950254       0.00000000
Si      -2.05723152      -0.23714982      -2.98678375       0.00000000
Si      -1.23325074      -2.42825256      -2.61705558       0.00000000
Si       1.47558078       3.50334369      -0.01287422       0.00000000
Si      -1.00240515      -0.46854927       3.66884112       0.00000000
