10
Lattice="16.28999089631971 0.0 0.0 0.0 16.28999089631971 0.0 0.0 0.0 34.51530692428229" Properties=species:S:1:pos:R:3:initial_magmoms:R:1 pbc="T T T"
Si       1.62509040      -1.35541012      -1.07977747       0.00000000
Si       0.41819688       2.29060858      -0.60812553       0.00000000
Si       0.25963002      -0.24817978       2.38925443       0.00000000
Si      -2.12293561      -0.71903327      -0.92062730       0.00000000
Si      -2.99852378       1.42839517      -1.00374020       0.00000000
Si      -1.26105777       2.45062525      -2.28601909       0.00000000
Si       3.52139301       0.03333911      -0.65506638       0.00000000
Si       1.03726575      -3.46346644      -0.18458796       0.00000000
Si       2.70239697       2.21657053      -1.21966808       0.00000000
Si      -1.17048537      -1.93075663       3.06340778       0.00000000
