10
Lattice="16.28999089631971 0.0 0.0 0.0 16.28999089631971 0.0 0.0 0.0 34.51530692428229" Properties=species:S:1:pos:R:3:initial_magmoms:R:1 pbc="T T T"
Si      -0.61970418       1.02993525       2.01207094       0.00000000
Si      -0.57863709       1.54722420      -1.73077103       0.00000000
Si       2.42444070      -0.39889323       0.00169125       0.00000000
Si      -1.22155452      -2.21040639      -0.00559148       0.00000000
Si       1.06113060       2.64940560       1.82624043       0.00000000
Si       2.56609854      -2.17290681       1.60313336       0.00000000
Si       2.75175567      -1.54733823      -2.07547560       0.00000000
Si      -2.03181912       0.30503025      -3.24174847       0.00000000
Si       0.09544311      -0.34762860       3.87500116       0.00000000
Si       0.63307827      -2.44315791       2.97836201       0.00000000
