10
Lattice="16.28999089631971 0.0 0.0 0.0 16.28999089631971 0.0 0.0 0.0 34.51530692428229" Properties=species:S:1:pos:R:3:initial_magmoms:R:1 pbc="T T T"
Si      -1.82557143      -1.04096358       1.09178880       0.00000000
Si      -1.28247912       1.39198050      -1.43021157       0.00000000
Si       1.44202338      -1.32431184      -1.41837282       0.00000000
Si       1.45318203       1.24219395       1.51097744       0.00000000
Si       2.78067042       2.63440251       0.13202112       0.00000000
Si      -2.80142388       2.62067004       0.04697536       0.00000000
Si       2.03181912      -0.30503025       3.24174847       0.00000000
Si      -2.63067210       0.03613122      -2.80309319       0.00000000
Si       0.08713521      -2.67934662      -2.80343834       0.00000000
Si      -2.71518462      -2.77482231      -0.10889585       0.00000000
