10
Lattice="16.28999089631971 0.0 0.0 0.0 16.28999089631971 0.0 0.0 0.0 34.51530692428229" Properties=species:S:1:pos:R:3:initial_magmoms:R:1 pbc="T T T"
Si       2.26067733      -0.81513531      -0.00241607       0.00000000
Si      -0.14972139       0.64668042       2.31066303       0.00000000
Si      -1.48348143      -1.80892305      -0.62714348       0.00000000
Si      -0.51663735       2.10699000      -1.42776098       0.00000000
Si      -1.69246584      -2.76372882       1.50366019       0.00000000
Si      -0.73754604      -1.46137590       3.20585253       0.00000000
Si       1.74658122       2.03542965       2.73537412       0.00000000
Si      -3.58970838      -0.82420884      -1.45033401       0.00000000
Si      -2.71120986       2.82329388      -0.62904182       0.00000000
Si       2.88038151      -1.84507056      -2.01448701       0.00000000
