10
Lattice="16.28999089631971 0.0 0.0 0.0 16.28999089631971 0.0 0.0 0.0 34.51530692428229" Properties=species:S:1:pos:R:3:initial_magmoms:R:1 pbc="T T T"
Si       1.35397593       1.73863170      -0.84966379       0.00000000
Si       0.71009739      -2.17396566      -0.59224848       0.00000000
Si      -2.29056948       0.51880392      -0.49267177       0.00000000
Si       1.94295717      -0.59891814       2.89842452       0.00000000
Si       3.07608957      -2.03567985      -0.75557501       0.00000000
Si      -3.54367773      -1.36177884       0.19100782       0.00000000
Si       0.60461964       3.79531329       0.21786074       0.00000000
Si      -0.36768159      -3.62454129       1.29101126       0.00000000
Si      -0.10823076      -2.70831024      -2.75777456       0.00000000
Si       3.80886264      -0.35595279       0.78570689       0.00000000
