10
Lattice="16.28999089631971 0.0 0.0 0.0 16.28999089631971 0.0 0.0 0.0 34.51530692428229" Properties=species:S:1:pos:R:3:initial_magmoms:R:1 pbc="T T T"
Si       0.83179998       1.53445284       1.51225450       0.00000000
Si       1.16535402       0.01042560      -2.01358962       0.00000000
Si      -1.97037324       1.11979089      -0.72212966       0.00000000
Si       0.46968957      -2.02810500       1.19561090       0.00000000
Si       0.37084185       3.60698067       0.51735022       0.00000000
Si      -0.56980791      -3.69505160      -0.03147798       0.00000000
Si       3.50259435      -0.36680193      -1.42803711       0.00000000
Si       0.18497295      -1.62974934      -3.44031514       0.00000000
Si      -0.43526880       1.50535890       3.48849854       0.00000000
Si      -1.38495951       3.42814905      -1.02165366       0.00000000
