10
Lattice="16.28999089631971 0.0 0.0 0.0 16.28999089631971 0.0 0.0 0.0 34.51530692428229" Properties=species:S:1:pos:R:3:initial_magmoms:R:1 pbc="T T T"
Si      -1.26233653      -1.82277932       0.68129802       0.00000000
Si       2.29004820      -0.48228174       0.27591552       0.00000000
Si      -0.45164025       1.71760131       1.58805016       0.00000000
Si      -0.28484694       0.26578764      -2.37392962       0.00000000
Si      -0.39104145      -3.61544237      -0.62814442       0.00000000
Si       0.69343272       3.61712934       0.81207660       0.00000000
Si       1.42299666       1.80745695      -3.01795109       0.00000000
Si       3.48612516       1.48931325      -0.24882099       0.00000000
Si       2.01016971       3.11244885      -1.08757793       0.00000000
Si      -2.71771676       0.70854984      -2.66192550       0.00000000
