10
Lattice="16.28999089631971 0.0 0.0 0.0 16.28999089631971 0.0 0.0 0.0 34.51530692428229" Properties=species:S:1:pos:R:3:initial_magmoms:R:1 pbc="T T T"
Si      -1.35511623       1.35710361      -1.35976579       0.00000000
Si       1.35858600      -1.35633798      -1.35855776       0.00000000
Si      -1.36164852      -1.35588186       1.37764473       0.00000000
Si       1.36236528       1.36365219       1.37933598       0.00000000
Si      -2.70917361      -2.71508688       0.00245059       0.00000000
Si      -2.70935280       2.71546155       0.00217447       0.00000000
Si      -2.71252935       0.00013032      -2.71621811       0.00000000
Si       0.00175932      -2.71459818      -2.71580393       0.00000000
Si       0.00213399       2.71498914      -2.71618360       0.00000000
Si       2.71704168       2.71567332       0.00000000       0.00000000
