10
Lattice="16.28999089631971 0.0 0.0 0.0 16.28999089631971 0.0 0.0 0.0 34.51530692428229" Properties=species:S:1:pos:R:3:initial_magmoms:R:1 pbc="T T T"
Si       1.97037324      -1.11979089       0.72212966       0.00000000
Si      -1.03257423      -0.80518212      -1.99156884       0.00000000
Si      -1.57152888       0.32596290       1.78202629       0.00000000
Si       0.58541373       2.30835816      -0.29952400       0.00000000
Si       3.13572726      -1.10936529      -1.29145996       0.00000000
Si       2.80217322       0.41466195       2.23438416       0.00000000
Si       2.34121509       2.48718978       1.23947988       0.00000000
Si      -3.29522265      -0.74942145      -1.33567409       0.00000000
Si      -1.24590807       3.38776614       0.74325303       0.00000000
Si      -3.09558870       1.98892755       0.89781267       0.00000000
