10
Lattice="16.28999089631971 0.0 0.0 0.0 16.28999089631971 0.0 0.0 0.0 34.51530692428229" Properties=species:S:1:pos:R:3:initial_magmoms:R:1 pbc="T T T"
Si      -1.35477414       1.35871632       1.36038707       0.00000000
Si      -1.34959392      -1.35765747      -1.36658257       0.00000000
Si       1.35850455      -1.35922131       1.36145704       0.00000000
Si       1.36361961       1.35135324      -1.39261748       0.00000000
Si      -0.13756905       2.58761763      -2.80534704       0.00000000
Si       2.71362078      -2.71399545       0.00324444       0.00000000
Si      -2.71174743      -2.71617831      -0.00227801       0.00000000
Si       0.07670961      -2.53612494      -2.88284775       0.00000000
Si      -2.71313208       0.00021177       2.71825452       0.00000000
Si       0.00144981      -2.71502172       2.71790936       0.00000000
