10
Lattice="16.28999089631971 0.0 0.0 0.0 16.28999089631971 0.0 0.0 0.0 34.51530692428229" Properties=species:S:1:pos:R:3:initial_magmoms:R:1 pbc="T T T"
Si      -1.35583299      -1.34254035       1.35578617       0.00000000
Si      -1.24322022       1.32703227      -1.48839061       0.00000000
Si       1.24830270      -1.43599608      -1.38538307       0.00000000
Si       1.35853713       1.37305152       1.35740839       0.00000000
Si       2.23824600       0.18327879      -2.82303411       0.00000000
Si       0.68305599       2.08028187      -2.99281500       0.00000000
Si      -2.69014689       2.72127708      -0.02624545       0.00000000
Si       0.00162900      -2.70246213       2.71582809       0.00000000
Si      -2.71389771      -2.71314837      -0.01954603       0.00000000
Si       2.72385090      -2.70337437      -0.01155573       0.00000000
