10
Lattice="16.28999089631971 0.0 0.0 0.0 16.28999089631971 0.0 0.0 0.0 34.51530692428229" Properties=species:S:1:pos:R:3:initial_magmoms:R:1 pbc="T T T"
Si       1.28233251      -0.44471700      -1.87566637       0.00000000
Si      -2.15086644       0.17606232      -0.93294927       0.00000000
Si       0.62540568       2.23091550       0.58834825       0.00000000
Si       0.69019101      -0.98481195       2.09366517       0.00000000
Si       3.34414152       0.09161496      -0.95503908       0.00000000
Si      -0.94915314       0.10287135       3.38622962       0.00000000
Si      -0.55299663       2.30190732       2.61336244       0.00000000
Si       2.95261137       1.80457362       0.73386487       0.00000000
Si       0.27991107       1.02824109      -3.37770434       0.00000000
Si      -2.87560854      -0.64026216       2.24836286       0.00000000
