10
Lattice="16.28999089631971 0.0 0.0 0.0 16.28999089631971 0.0 0.0 0.0 34.51530692428229" Properties=species:S:1:pos:R:3:initial_magmoms:R:1 pbc="T T T"
Si       1.35638685      -1.35699610      -1.36521921       0.00000000
Si      -1.36028016       1.36109466      -1.36356248       0.00000000
Si       1.35483930       1.36660068       1.38220075       0.00000000
Si      -1.36418976      -1.35596331       1.39179601       0.00000000
Si       2.71234672      -2.71196639      -0.00742080       0.00000000
Si      -2.71860552      -2.70963369      -0.00248510       0.00000000
Si       2.71151937       2.71733490      -0.00234704       0.00000000
Si      -0.00128691      -2.71252203      -2.72129186       0.00000000
Si       2.71334975       0.00237834      -2.72136090       0.00000000
Si      -2.71886616       2.71743264      -0.00500472       0.00000000
