10
Lattice="16.28999089631971 0.0 0.0 0.0 16.28999089631971 0.0 0.0 0.0 34.51530692428229" Properties=species:S:1:pos:R:3:initial_magmoms:R:1 pbc="T T T"
Si      -1.35441576      -1.35367038      -1.39428112       0.00000000
Si       1.36418976       1.35596331      -1.39179601       0.00000000
Si       1.37220444      -1.45957490       1.39956196       0.00000000
Si      -1.37801997       1.43712009       1.50669754       0.00000000
Si      -2.71555929      -2.70543410      -0.01943213       0.00000000
Si      -2.71632492       2.71751409      -0.01915601       0.00000000
Si       2.72233593      -2.71861271      -0.04304061       0.00000000
Si       2.71902906       2.72256399      -0.00959526       0.00000000
Si      -2.71189404       0.00073468      -2.75580719       0.00000000
Si       0.00579924      -2.71592486      -2.75556558       0.00000000
