10
Lattice="16.28999089631971 0.0 0.0 0.0 16.28999089631971 0.0 0.0 0.0 34.51530692428229" Properties=species:S:1:pos:R:3:initial_magmoms:R:1 pbc="T T T"
Si       1.30665348       1.82724116      -0.67888195       0.00000000
Si       0.76382181      -1.80579441      -1.39925132       0.00000000
Si       0.42935553      -0.32737687       2.35170175       0.00000000
Si      -2.32140645       0.55140836      -0.38936740       0.00000000
Si      -0.36295749      -3.72200340      -0.69976372       0.00000000
Si       0.71149833       2.21271143      -3.01301540       0.00000000
Si      -3.39789852       0.47493495       1.70005239       0.00000000
Si      -0.75377088      -2.28986805       3.03624422       0.00000000
Si      -3.36090393      -1.11553824      -1.61645627       0.00000000
Si       2.76203370      -0.70408801       2.66434158       0.00000000
