10
Lattice="16.28999089631971 0.0 0.0 0.0 16.28999089631971 0.0 0.0 0.0 34.51530692428229" Properties=species:S:1:pos:R:3:initial_magmoms:R:1 pbc="T T T"
Si       1.34799750       1.35024552       1.39341478       0.00000000
Si      -1.36782243      -1.36381509       1.39286254       0.00000000
Si       1.43456256      -1.38645819      -1.37750667       0.00000000
Si      -1.28891367       1.52811603      -1.49267741       0.00000000
Si      -0.08244369      -2.35706526      -2.90765879       0.00000000
Si       2.68855047       2.70400968       0.01323663       0.00000000
Si      -2.71521720       2.70658350       0.02358777       0.00000000
Si      -2.71021617      -2.71930599       0.04671304       0.00000000
Si       2.70608369      -2.74292649       0.03447391       0.00000000
Si      -0.00711873       2.70501966       2.75162738       0.00000000
