10
Lattice="16.28999089631971 0.0 0.0 0.0 16.28999089631971 0.0 0.0 0.0 34.51530692428229" Properties=species:S:1:pos:R:3:initial_magmoms:R:1 pbc="T T T"
Si       1.35705474       1.35580041      -1.35645232       0.00000000
Si      -1.35637056      -1.35830907      -1.35648684       0.00000000
Si      -1.35751086       1.35736425       1.35769487       0.00000000
Si       1.35767376      -1.35751086       1.35790196       0.00000000
Si       2.71217097       0.00102627      -2.71466492       0.00000000
Si      -0.00364896      -2.71303434      -2.71521717       0.00000000
Si      -2.71476108      -0.00052128       2.71411268       0.00000000
Si      -0.00105885      -2.71396287       2.71532071       0.00000000
Si       2.71479366      -2.71463076       0.00027612       0.00000000
Si       2.71467963       2.71495656      -0.00010355       0.00000000
