10
Lattice="16.28999089631971 0.0 0.0 0.0 16.28999089631971 0.0 0.0 0.0 34.51530692428229" Properties=species:S:1:pos:R:3:initial_magmoms:R:1 pbc="T T T"
Si      -1.99932057      -0.42582060       1.07770655       0.00000000
Si       1.10584665       2.03919849       0.17941067       0.00000000
Si       0.03771135      -0.73109520      -2.24856996       0.00000000
Si       1.78494417      -1.17494883       1.10310983       0.00000000
Si       2.77256844       1.04705604      -1.22677824       0.00000000
Si       2.31621876      -1.13590170      -2.31622000       0.00000000
Si      -1.53836244      -2.49834843       2.07261082       0.00000000
Si       1.68142122       2.19050001       2.43909456       0.00000000
Si       2.61713741      -2.57303808      -0.58061682       0.00000000
Si       0.24044040       1.11324231      -3.62027805       0.00000000
