10
Lattice="16.28999089631971 0.0 0.0 0.0 16.28999089631971 0.0 0.0 0.0 34.51530692428229" Properties=species:S:1:pos:R:3:initial_magmoms:R:1 pbc="T T T"
Si      -1.81864818       0.49471101       1.41640445       0.00000000
Si       1.50926850       1.70194662      -0.85908647       0.00000000
Si      -2.04750639       0.56270547      -1.28317628       0.00000000
Si       1.12940199      -2.04149538       1.15156934       0.00000000
Si      -0.07706799       1.84368591       2.56655072       0.00000000
Si      -1.72727757      -2.16541341      -1.77702157       0.00000000
Si       1.20554145       3.40474032       0.78829554       0.00000000
Si       3.63920229       0.71175897      -0.65810372       0.00000000
Si       2.64640824      -1.07088831       2.68172146       0.00000000
Si       2.19027195      -3.24113985      -0.71029090       0.00000000
