10
Lattice="16.28999089631971 0.0 0.0 0.0 16.28999089631971 0.0 0.0 0.0 34.51530692428229" Properties=species:S:1:pos:R:3:initial_magmoms:R:1 pbc="T T T"
Si       0.07004700      -1.08253566       2.14409206       0.00000000
Si       0.84232332      -2.02727421      -1.23751251       0.00000000
Si       1.66452849       1.94735547       0.08891148       0.00000000
Si      -2.15036145       0.77082651      -1.16316649       0.00000000
Si      -2.15751276      -1.56115215       1.78917096       0.00000000
Si       0.96948306      -2.96297181       1.05955148       0.00000000
Si      -0.49158333       1.89354960      -2.78214238       0.00000000
Si       2.33751627      -0.75078981      -2.67497230       0.00000000
Si      -3.55218111       0.13559796       0.91772801       0.00000000
Si       3.50321078       0.82015263      -1.14097314       0.00000000
