10
Lattice="16.28999089631971 0.0 0.0 0.0 16.28999089631971 0.0 0.0 0.0 34.51530692428229" Properties=species:S:1:pos:R:3:initial_magmoms:R:1 pbc="T T T"
Si      -1.10584665      -2.03919849      -0.17941067       0.00000000
Si       0.57557457       0.15130152       2.25968389       0.00000000
Si      -0.65634039       2.20351572      -0.42274372       0.00000000
Si       1.66672179      -0.99214245      -1.40618891       0.00000000
Si       0.67909752      -3.21414732       0.92369916       0.00000000
Si      -2.71814940       1.66718376      -1.34337101       0.00000000
Si       1.99092700      -1.77192846       2.29678787       0.00000000
Si       3.58330220      -0.23126913      -0.32679111       0.00000000
Si       1.31411171      -0.09216882      -3.53081433       0.00000000
Si      -1.06813530      -2.77029369      -2.42798062       0.00000000
