10
Lattice="16.28999089631971 0.0 0.0 0.0 16.28999089631971 0.0 0.0 0.0 34.51530692428229" Properties=species:S:1:pos:R:3:initial_magmoms:R:1 pbc="T T T"
Si       1.72149366       1.49871258       0.37252392       0.00000000
Si      -0.57557457      -0.15130152      -2.25968389       0.00000000
Si       1.41535243      -1.92322998       0.03710398       0.00000000
Si      -1.73454291       1.14117966       1.27934508       0.00000000
Si      -1.23191496       2.05221420      -2.68242761       0.00000000
Si       0.10352295      -3.36544884      -1.33598473       0.00000000
Si      -1.68142122      -2.19050001      -2.43909456       0.00000000
Si       2.84139044       1.75353705      -1.68137960       0.00000000
Si      -1.63743822       0.09681147       3.42008916       0.00000000
Si       1.59751536      -2.62402578       2.22561726       0.00000000
