10
Lattice="16.28999089631971 0.0 0.0 0.0 16.28999089631971 0.0 0.0 0.0 34.51530692428229" Properties=species:S:1:pos:R:3:initial_magmoms:R:1 pbc="T T T"
Si      -0.23568372      -1.08058086      -2.05255297       0.00000000
Si       1.71393606       1.12285341       1.12556101       0.00000000
Si      -1.16711334      -1.64478501       1.20673415       0.00000000
Si      -0.05613534       2.50416396      -1.62639224       0.00000000
Si       1.00491381       0.77825475      -2.88005792       0.00000000
Si      -2.38384602      -0.16096149       2.63615878       0.00000000
Si      -2.55402765      -0.56343852      -2.44847828       0.00000000
Si       0.34541316       2.54488896       2.63748071       0.00000000
Si       0.33407532      -2.88104940       2.61946371       0.00000000
Si      -2.86474311      -2.70340695      -0.16597976       0.00000000
