10
Lattice="16.28999089631971 0.0 0.0 0.0 16.28999089631971 0.0 0.0 0.0 34.51530692428229" Properties=species:S:1:pos:R:3:initial_magmoms:R:1 pbc="T T T"
Si      -1.35013149       1.25903781       1.44260257       0.00000000
Si      -1.35741312      -1.35544203      -1.35465752       0.00000000
Si       1.35420055       1.36260963      -1.35617620       0.00000000
Si       1.29280698      -1.28878335       1.49813773       0.00000000
Si      -2.15065467      -0.66096675       2.65864655       0.00000000
Si       0.33371694       2.39890517       2.72467437       0.00000000
Si       2.10874932       0.42088473       2.94743628       0.00000000
Si      -0.35258076      -2.51325378       2.69188481       0.00000000
Si       2.70237972      -2.70081684       0.02315978       0.00000000
Si       2.71189308       0.00503361      -2.71242143       0.00000000
