10
Lattice="16.28999089631971 0.0 0.0 0.0 16.28999089631971 0.0 0.0 0.0 34.51530692428229" Properties=species:S:1:pos:R:3:initial_magmoms:R:1 pbc="T T T"
Si      -2.16981171       0.82851496      -0.44417773       0.00000000
Si       1.06104915      -1.72590921      -1.25366568       0.00000000
Si       1.37064060       1.93247360      -0.52121594       0.00000000
Si       0.05613534      -2.50416396       1.62639224       0.00000000
Si      -2.65469985      -0.91046439      -1.90638501       0.00000000
Si      -0.92615166       1.50584013       2.91330895       0.00000000
Si       0.30977064       3.13211807       1.34064430       0.00000000
Si      -2.86840836       0.64616307       1.75324124       0.00000000
Si       1.77007140      -1.38131055       2.75195325       0.00000000
Si      -0.17954838      -3.58474482      -0.42616073       0.00000000
