10
Lattice="16.28999089631971 0.0 0.0 0.0 16.28999089631971 0.0 0.0 0.0 34.51530692428229" Properties=species:S:1:pos:R:3:initial_magmoms:R:1 pbc="T T T"
Si      -1.35721927       1.35668729      -1.35697005       0.00000000
Si       1.35754344      -1.35799138      -1.35721166       0.00000000
Si       1.35909099       1.35751319       1.35624523       0.00000000
Si      -1.35804028      -1.35768187       1.35762584       0.00000000
Si      -0.00034209       2.71270762       2.71411268       0.00000000
Si      -0.00040725       2.71329406      -2.71538974       0.00000000
Si      -2.71472979       2.71423888      -0.00006903       0.00000000
Si       2.71588509      -0.00111516      -2.71369849       0.00000000
Si      -2.71573281      -0.00010585       2.71387107       0.00000000
Si       2.71536381       0.00266345       2.71428525       0.00000000
