10
Lattice="16.28999089631971 0.0 0.0 0.0 16.28999089631971 0.0 0.0 0.0 34.51530692428229" Properties=species:S:1:pos:R:3:initial_magmoms:R:1 pbc="T T T"
Si       1.35506736      -1.35782037       1.36197477       0.00000000
Si      -1.36054257       1.35645201       1.36031804       0.00000000
Si       1.36625859       1.35483930      -1.37791740       0.00000000
Si      -1.37900456      -1.35988920      -1.37714081       0.00000000
Si       2.71075374       2.71443528       0.00100094       0.00000000
Si       2.71171485      -2.71474479       0.00113901       0.00000000
Si      -2.71424699       2.71440270      -0.00155319       0.00000000
Si       2.71329498       0.00035838       2.71794388       0.00000000
Si      -0.00158828      -2.71507059       2.71801291       0.00000000
Si      -2.71955753      -2.71365336       0.00303735       0.00000000
