10
Lattice="16.28999089631971 0.0 0.0 0.0 16.28999089631971 0.0 0.0 0.0 34.51530692428229" Properties=species:S:1:pos:R:3:initial_magmoms:R:1 pbc="T T T"
Si       1.35748154       1.35669636      -1.35866130       0.00000000
Si      -1.35796257      -1.35804843      -1.35841969       0.00000000
Si       1.35744896      -1.36032903       1.36038707       0.00000000
Si      -1.36221976       1.36340784       1.35959321       0.00000000
Si       2.71359146       2.71422351      -0.00048321       0.00000000
Si      -2.71442292      -2.71407690      -0.00113901       0.00000000
Si      -2.71654062       2.71383255      -0.00210543       0.00000000
Si       0.00003584       2.71451673      -2.71590747       0.00000000
Si       2.71482950      -0.00071676      -2.71566587       0.00000000
Si       2.71424306      -2.71710684       0.00034515       0.00000000
