10
Lattice="16.28999089631971 0.0 0.0 0.0 16.28999089631971 0.0 0.0 0.0 34.51530692428229" Properties=species:S:1:pos:R:3:initial_magmoms:R:1 pbc="T T T"
Si       1.35721927      -1.35668729       1.35697005       0.00000000
Si       1.35681202       1.35660676      -1.35841969       0.00000000
Si      -1.35751052       1.35755158       1.35690102       0.00000000
Si      -1.35818613      -1.35699816      -1.35769487       0.00000000
Si       0.00011077       2.71362893       2.71356043       0.00000000
Si      -2.71447342      -0.00182285       2.71304270       0.00000000
Si      -2.71525534       0.00101650      -2.71321528       0.00000000
Si      -0.00082102      -2.71436916       2.71459589       0.00000000
Si       2.71476271      -2.71467867      -0.00024161       0.00000000
Si       2.71631026       0.00082590       2.71321528       0.00000000
