10
Lattice="16.28999089631971 0.0 0.0 0.0 16.28999089631971 0.0 0.0 0.0 34.51530692428229" Properties=species:S:1:pos:R:3:initial_magmoms:R:1 pbc="T T T"
Si      -1.72986183      -0.90684801       1.36498593       0.00000000
Si       1.00193763       1.70109954       1.43314334       0.00000000
Si       1.66234237      -1.79514171       0.37052276       0.00000000
Si      -0.39234253       0.13351284      -2.74593581       0.00000000
Si       1.07904960      -3.00824172      -1.60986385       0.00000000
Si      -3.15088740      -1.92971340      -0.29565828       0.00000000
Si       2.84020711       2.38682709      -0.05039238       0.00000000
Si       2.28923044       0.39985434       2.98773435       0.00000000
Si      -0.45603270      -2.31487416       2.98851094       0.00000000
Si       1.07131674      -1.65807765      -3.51279733       0.00000000
