10
Lattice="16.28999089631971 0.0 0.0 0.0 16.28999089631971 0.0 0.0 0.0 34.51530692428229" Properties=species:S:1:pos:R:3:initial_magmoms:R:1 pbc="T T T"
Si      -1.35676641       1.35760860      -1.35752230       0.00000000
Si       1.35943308      -1.35519442      -1.35786745       0.00000000
Si      -1.35116265      -1.36561839       1.36732465       0.00000000
Si       1.34829072       1.37753127       1.37975017       0.00000000
Si      -2.51630001       0.11999214       2.76812916       0.00000000
Si       2.57194665      -0.12447189       2.72253442       0.00000000
Si       2.71570590      -2.71004417       0.00017258       0.00000000
Si       0.00034209      -2.71270762      -2.71411268       0.00000000
Si      -2.71539072      -2.71281347      -0.00024161       0.00000000
Si      -2.71438770       0.00153126      -2.71418171       0.00000000
