10
Lattice="16.28999089631971 0.0 0.0 0.0 16.28999089631971 0.0 0.0 0.0 34.51530692428229" Properties=species:S:1:pos:R:3:initial_magmoms:R:1 pbc="T T T"
Si       1.25310825       1.88058276      -0.68367958       0.00000000
Si      -2.21902380       0.47601009      -0.82577918       0.00000000
Si       0.14882544      -2.21902380      -1.30336775       0.00000000
Si      -0.06255360       0.67833189       2.63942151       0.00000000
Si       1.88817390      -1.03342131       2.82625297       0.00000000
Si      -3.29510324      -1.57498236      -0.05612192       0.00000000
Si       3.54367773       1.36177884      -0.19100782       0.00000000
Si      -3.05860225       2.24753130       0.64112218       0.00000000
Si       0.98012043       2.08621143      -3.08587726       0.00000000
Si      -1.83144397      -3.36657285      -0.82298344       0.00000000
