10
Lattice="16.28999089631971 0.0 0.0 0.0 16.28999089631971 0.0 0.0 0.0 34.51530692428229" Properties=species:S:1:pos:R:3:initial_magmoms:R:1 pbc="T T T"
Si      -1.35778703       1.35474831       1.36128447       0.00000000
Si       1.35817223      -1.36055709       1.36118092       0.00000000
Si       1.37074811       1.33858188      -1.38332595       0.00000000
Si      -1.35025725      -1.37254653      -1.38786472       0.00000000
Si      -0.03575492       2.66955700      -2.74030291       0.00000000
Si      -2.71485623       2.71276297       0.00576406       0.00000000
Si       2.71822433       2.71047748      -0.00079385       0.00000000
Si       0.00039910       2.71174647       2.71897934       0.00000000
Si      -2.71220096      -2.71893132      -0.00089740       0.00000000
Si       2.71279976      -2.71889874       0.00165674       0.00000000
