10
Lattice="16.28999089631971 0.0 0.0 0.0 16.28999089631971 0.0 0.0 0.0 34.51530692428229" Properties=species:S:1:pos:R:3:initial_magmoms:R:1 pbc="T T T"
Si       1.35669636      -1.35790182      -1.36145704       0.00000000
Si      -1.35782852       1.35751086      -1.36166413       0.00000000
Si       1.34819298       1.35584928       1.37288162       0.00000000
Si      -1.36734187      -1.34833959       1.37391708       0.00000000
Si      -2.71911486      -2.70871749      -0.00138061       0.00000000
Si      -2.71552104       2.71508688      -0.00541891       0.00000000
Si       2.71780731      -2.71547784      -0.00034515       0.00000000
Si       2.71557558       2.71785618      -0.00500472       0.00000000
Si      -2.71492775      -0.00014661      -2.71897934       0.00000000
Si       0.00021177       2.71519273      -2.71928998       0.00000000
