10
Lattice="16.28999089631971 0.0 0.0 0.0 16.28999089631971 0.0 0.0 0.0 34.48637585096406" Properties=species:S:1:pos:R:3:initial_magmoms:R:1 pbc="T T T"
Si       2.02087224      -1.28814804      -0.32037861       0.00000000
Si      -0.51829893       0.75113190      -2.24482292       0.00000000
Si      -1.98742887      -1.43830926       0.08683674       0.00000000
Si       1.32726033       0.75588858       2.18447173       0.00000000
Si      -1.14530103       2.65624740      -0.94775511       0.00000000
Si       0.60442416      -1.17358047       3.27627651       0.00000000
Si       1.86916347      -2.52667022       1.73056179       0.00000000
Si      -1.34659656      -3.63624470      -0.39790403       0.00000000
Si       4.02675768       0.12616605      -0.12073687       0.00000000
Si      -1.78981488      -0.75948867      -3.67528410       0.00000000
