10
Lattice="16.28999089631971 0.0 0.0 0.0 16.28999089631971 0.0 0.0 0.0 34.48637585096406" Properties=species:S:1:pos:R:3:initial_magmoms:R:1 pbc="T T T"
Si       2.02206141       1.19935451      -0.44511590       0.00000000
Si      -0.77400306       1.01395802       2.02507561       0.00000000
Si       0.25128954      -2.09379021       1.15612191       0.00000000
Si      -1.49167530       0.90444035      -1.73542438       0.00000000
Si      -2.60135010      -0.52778134       2.28779297       0.00000000
Si      -1.95509322       3.00692549      -0.70597099       0.00000000
Si      -0.94156200       3.26295542       1.39611273       0.00000000
Si      -2.91178863      -2.23831509       0.51822706       0.00000000
Si       2.55407652      -2.39535069       1.52116040       0.00000000
Si       2.10382092       1.88659703      -2.70131933       0.00000000
