10
Lattice="16.28999089631971 0.0 0.0 0.0 16.28999089631971 0.0 0.0 0.0 34.48637585096406" Properties=species:S:1:pos:R:3:initial_magmoms:R:1 pbc="T T T"
Si      -1.26061794       1.40944338      -1.33683062       0.00000000
Si      -1.30854312      -1.11192282       1.59768571       0.00000000
Si       1.48892229      -1.31447268      -1.30831037       0.00000000
Si       0.75342879       1.92280644       1.18329719       0.00000000
Si       0.70641585      -1.94295717       2.98234896       0.00000000
Si      -2.59481781       0.05188365      -2.69128379       0.00000000
Si      -2.64642453      -2.63709036       0.16425870       0.00000000
Si       0.12220758      -2.66693364      -2.68466240       0.00000000
Si       1.33796286       1.10731275       3.37207972       0.00000000
Si      -2.63425590       2.78189217       0.06262729       0.00000000
