10
Lattice="16.28999089631971 0.0 0.0 0.0 16.28999089631971 0.0 0.0 0.0 34.48637585096406" Properties=species:S:1:pos:R:3:initial_magmoms:R:1 pbc="T T T"
Si       0.47224710       1.24908462       1.95841341       0.00000000
Si      -0.48225568       1.54145754      -1.74266652       0.00000000
Si       1.97113887      -1.33986879      -0.53667728       0.00000000
Si      -1.90865762      -1.51280343       0.52057213       0.00000000
Si      -0.17531298      -0.21383883      -3.54675331       0.00000000
Si       0.74284029      -3.32624060      -1.07794125       0.00000000
Si      -0.98498299      -2.44959572      -2.49681501       0.00000000
Si      -1.61382749       2.29293153       2.52488693       0.00000000
Si      -2.71217816       2.42766612      -1.16705410       0.00000000
Si      -1.11700367      -3.01254391       2.17688472       0.00000000
