10
Lattice="16.28999089631971 0.0 0.0 0.0 16.28999089631971 0.0 0.0 0.0 34.48637585096406" Properties=species:S:1:pos:R:3:initial_magmoms:R:1 pbc="T T T"
Si       1.15528680      -1.63851336       1.30434444       0.00000000
Si      -1.11808044      -0.86548770      -1.94641214       0.00000000
Si       2.21846994       0.54822366      -1.06945760       0.00000000
Si      -2.16828045      -0.13929579       1.32362233       0.00000000
Si       0.14071302       2.81738808      -0.34062212       0.00000000
Si       0.63954540      -2.86212042      -1.58354629       0.00000000
Si      -1.22023503      -2.13762267       2.31379571       0.00000000
Si      -2.27659266       2.78054010      -0.43663225       0.00000000
Si      -2.30218425       2.14127163       1.81277736       0.00000000
Si      -2.72474685       1.15264782      -2.14326048       0.00000000
