10
Lattice="16.28999089631971 0.0 0.0 0.0 16.28999089631971 0.0 0.0 0.0 34.48637585096406" Properties=species:S:1:pos:R:3:initial_magmoms:R:1 pbc="T T T"
Si       0.01241298      -0.97472844       2.16895285       0.00000000
Si      -0.59640948      -1.62438993      -1.66552045       0.00000000
Si       2.16873657       1.14756534      -0.06373086       0.00000000
Si      -1.75762584       1.99663272      -0.36286585       0.00000000
Si       0.51574140       1.22360706       2.88789073       0.00000000
Si      -0.63954540       2.86212042       1.58354629       0.00000000
Si       1.49017662      -2.66373591      -1.66189938       0.00000000
Si       2.45563605       1.09706634      -2.34904080       0.00000000
Si      -3.56003289       0.43921098       0.17570818       0.00000000
Si       1.57892454       3.41034408       0.51408869       0.00000000
