10
Lattice="16.28999089631971 0.0 0.0 0.0 16.28999089631971 0.0 0.0 0.0 34.48637585096406" Properties=species:S:1:pos:R:3:initial_magmoms:R:1 pbc="T T T"
Si      -0.04232142       0.10666692      -2.32990085       0.00000000
Si      -1.97592813      -0.66476232       1.26728678       0.00000000
Si       0.79718373       1.95690141       1.34928853       0.00000000
Si       1.87805781      -1.86072525       0.02289897       0.00000000
Si      -0.64317807      -2.09108214       2.77980144       0.00000000
Si       2.10502638       0.63149814       2.79099572       0.00000000
Si       0.76217652      -3.42733944       1.37874680       0.00000000
Si       3.48384456      -0.71837271       1.34208777       0.00000000
Si      -0.99036684       2.10499380      -3.32007423       0.00000000
Si      -0.35161965      -2.35064700      -3.36276839       0.00000000
