10
Lattice="16.28999089631971 0.0 0.0 0.0 16.28999089631971 0.0 0.0 0.0 34.48637585096406" Properties=species:S:1:pos:R:3:initial_magmoms:R:1 pbc="T T T"
Si       0.04232142      -0.10666692       2.32990085       0.00000000
Si      -0.94804542       1.99832688      -0.99017338       0.00000000
Si       2.37552183       0.49910931      -1.00945127       0.00000000
Si      -0.30929823      -2.45731392      -1.03286753       0.00000000
Si       1.87219341      -1.69922619      -1.72838915       0.00000000
Si       1.22023503       2.13762267      -2.31379571       0.00000000
Si       1.92037923      -1.96739217       2.35279982       0.00000000
Si      -2.81856096       1.09467171      -2.15136479       0.00000000
Si      -1.70025246      -0.28528677      -3.72163382       0.00000000
Si      -1.93360671      -0.77142924       3.59718763       0.00000000
