10
Lattice="16.28999089631971 0.0 0.0 0.0 16.28999089631971 0.0 0.0 0.0 34.48637585096406" Properties=species:S:1:pos:R:3:initial_magmoms:R:1 pbc="T T T"
Si      -0.91137663      -1.88051760       1.04986760       0.00000000
Si       1.54109916      -0.07165971      -1.77619734       0.00000000
Si       1.85078835       0.93664242       1.23919446       0.00000000
Si      -1.65833829       1.86527016      -0.06495754       0.00000000
Si       0.39252384       2.23951662       2.50709023       0.00000000
Si      -2.33435700      -0.51518754       2.49083334       0.00000000
Si      -1.40203143       2.22871635      -2.33904979       0.00000000
Si       0.72576837       1.61652186      -3.24262783       0.00000000
Si      -3.55636764       0.98464905       1.12432718       0.00000000
Si      -0.82888407       3.72335643       1.09912452       0.00000000
