10
Lattice="16.28999089631971 0.0 0.0 0.0 16.28999089631971 0.0 0.0 0.0 34.48637585096406" Properties=species:S:1:pos:R:3:initial_magmoms:R:1 pbc="T T T"
Si      -1.35511623      -1.35881406      -1.35707413       0.00000000
Si       1.35736425       1.35806472      -1.35628095       0.00000000
Si      -1.35754344       1.35697329       1.35762592       0.00000000
Si       1.35757602      -1.35770634       1.35766040       0.00000000
Si      -0.00076563       2.71438641      -2.71214806       0.00000000
Si      -2.71460470       2.71362078       0.00044832       0.00000000
Si      -2.71491095      -0.00260640       2.71421724       0.00000000
Si       0.00014661       2.71443528       2.71470005       0.00000000
Si      -0.00035838      -2.71441899       2.71473454       0.00000000
Si       2.71526607       2.71448415       0.00058627       0.00000000
