10
Lattice="16.28999089631971 0.0 0.0 0.0 16.28999089631971 0.0 0.0 0.0 34.48637585096406" Properties=species:S:1:pos:R:3:initial_magmoms:R:1 pbc="T T T"
Si      -1.35544203       1.35658233      -1.36207466       0.00000000
Si       1.37178090       1.36769211       1.33976196       0.00000000
Si       1.35984033      -1.35826020      -1.36155737       0.00000000
Si      -1.38093588      -1.35557235       1.34783178       0.00000000
Si       2.60480358       0.00060273       2.77825848       0.00000000
Si      -2.71394658       2.71124244      -0.00155189       0.00000000
Si      -2.71513575      -2.71313208      -0.00662139       0.00000000
Si       2.71746522       2.71375110      -0.00582820       0.00000000
Si      -2.71313208      -0.00087966      -2.71914880       0.00000000
Si       2.71837746      -2.71513575      -0.00182778       0.00000000
