10
Lattice="16.28999089631971 0.0 0.0 0.0 16.28999089631971 0.0 0.0 0.0 34.48637585096406" Properties=species:S:1:pos:R:3:initial_magmoms:R:1 pbc="T T T"
Si      -2.08419147       0.36468423       0.92813235       0.00000000
Si       0.05447376      -2.16736821       1.02348723       0.00000000
Si       1.64590902       1.44039438       1.02069384       0.00000000
Si      -0.41163201       0.39517911      -2.42584201       0.00000000
Si      -3.21198075      -1.24447455      -0.41983737       0.00000000
Si       1.64366100       1.60296858      -2.73080520       0.00000000
Si      -1.93445379      -3.16223109       0.18315724       0.00000000
Si       1.85968269      -3.27090168       0.09435478       0.00000000
Si       3.27797154       0.04566087      -1.90771841       0.00000000
Si      -2.00466369      -0.44730711       3.20085476       0.00000000
