10
Lattice="16.28999089631971 0.0 0.0 0.0 16.28999089631971 0.0 0.0 0.0 34.48637585096406" Properties=species:S:1:pos:R:3:initial_magmoms:R:1 pbc="T T T"
Si       1.47357711      -0.20030184      -1.77284211       0.00000000
Si       1.11570210       0.39226320       2.04111178       0.00000000
Si      -1.28371716       2.02017177      -0.35231301       0.00000000
Si      -2.41730568      -0.03684798      -0.09601012       0.00000000
Si      -0.14071302      -2.81738808       0.34062212       0.00000000
Si       2.07775692      -2.26916442      -0.72883547       0.00000000
Si      -1.01209770       1.00445769       2.94468982       0.00000000
Si      -2.44289727      -0.67611645       2.15339948       0.00000000
Si       2.96354196       1.54963512       1.14312054       0.00000000
Si       3.29652585       1.22148936      -1.18426281       0.00000000
