10
Lattice="16.28999089631971 0.0 0.0 0.0 16.28999089631971 0.0 0.0 0.0 34.48637585096406" Properties=species:S:1:pos:R:3:initial_magmoms:R:1 pbc="T T T"
Si      -2.12346666      -0.91043181       0.52567612       0.00000000
Si       0.44815419       1.62789228       1.70662824       0.00000000
Si      -0.07952778       0.81199134      -2.27272241       0.00000000
Si       1.60666641      -2.01813552       0.19684834       0.00000000
Si      -1.31404914      -2.19559878       2.30569141       0.00000000
Si       2.05913745      -1.72006110      -2.17736753       0.00000000
Si       2.72474685      -1.15264782       2.14326048       0.00000000
Si      -0.19574064      -3.57555726       0.73542238       0.00000000
Si       0.55646640      -1.29194361       3.46688282       0.00000000
Si       2.86545987       1.66474026       1.80263836       0.00000000
