10
Lattice="16.28999089631971 0.0 0.0 0.0 16.28999089631971 0.0 0.0 0.0 34.48637585096406" Properties=species:S:1:pos:R:3:initial_magmoms:R:1 pbc="T T T"
Si      -2.19286206      -0.10440261       0.75245866       0.00000000
Si       0.13390380      -2.28056742      -0.48915503       0.00000000
Si       0.02559159       0.63926847      -2.24940961       0.00000000
Si       1.43079957       1.68057414       0.79129034       0.00000000
Si       2.44289727       0.67611645      -2.15339948       0.00000000
Si       1.17449271       1.31712795       3.06538259       0.00000000
Si       2.30218425      -2.14127163      -1.81277736       0.00000000
Si       3.55859937       1.06837965      -0.11228770       0.00000000
Si      -3.44641991       1.17465561      -0.87716146       0.00000000
Si       0.82539801       3.64992111      -0.41359534       0.00000000
