10
Lattice="16.28999089631971 0.0 0.0 0.0 16.28999089631971 0.0 0.0 0.0 34.48637585096406" Properties=species:S:1:pos:R:3:initial_magmoms:R:1 pbc="T T T"
Si      -1.35790182      -1.35641943      -1.35686722       0.00000000
Si       1.35734796      -1.35684297       1.35700516       0.00000000
Si      -1.35729909       1.35809730       1.35676376       0.00000000
Si       1.35993807       1.35920502      -1.35900537       0.00000000
Si       0.00089595       2.71401174       2.71366546       0.00000000
Si      -2.71603170      -0.00009774      -2.71273433       0.00000000
Si      -2.71511946      -0.00004887       2.71411378       0.00000000
Si       2.71508688       0.00185706       2.71432070       0.00000000
Si       0.00016290      -2.71489140       2.71463108       0.00000000
Si      -2.71526607      -2.71448415      -0.00058627       0.00000000
