10
Lattice="16.28999089631971 0.0 0.0 0.0 16.28999089631971 0.0 0.0 0.0 34.48637585096406" Properties=species:S:1:pos:R:3:initial_magmoms:R:1 pbc="T T T"
Si       1.31471703       1.45247474      -1.41883927       0.00000000
Si      -1.29806865      -1.14409557      -1.70155874       0.00000000
Si      -1.11873204       1.21549464       1.90423528       0.00000000
Si       1.16437662      -1.61210727       1.81667432       0.00000000
Si       0.61341624       0.60259968       3.31935002       0.00000000
Si       2.41797357      -2.71107954      -0.14825701       0.00000000
Si      -2.42532036      -2.80329723      -0.47556739       0.00000000
Si       2.56031559       0.01265733      -2.94817295       0.00000000
Si       2.92418532       2.59567371      -0.08062919       0.00000000
Si      -0.14478552       2.71819405      -2.92213572       0.00000000
