10
Lattice="16.28999089631971 0.0 0.0 0.0 16.28999089631971 0.0 0.0 0.0 34.48637585096406" Properties=species:S:1:pos:R:3:initial_magmoms:R:1 pbc="T T T"
Si       0.78152904       0.78946227      -2.06228643       0.00000000
Si      -1.93187997      -1.21099860      -0.58081987       0.00000000
Si       2.07396135      -0.45885672       1.05224889       0.00000000
Si      -0.70193610       1.32400233       1.93648006       0.00000000
Si       1.59513309       1.23725808       2.63324319       0.00000000
Si       2.26514079       2.51193170      -1.34893535       0.00000000
Si      -2.70019782       0.08860131      -2.47760608       0.00000000
Si      -3.21255090      -1.08774846       1.42077051       0.00000000
Si       1.93508910      -2.42014014       2.30289801       0.00000000
Si      -1.29375180       3.50305766       0.99769141       0.00000000
