10
Lattice="16.28999089631971 0.0 0.0 0.0 16.28999089631971 0.0 0.0 0.0 34.48637585096406" Properties=species:S:1:pos:R:3:initial_magmoms:R:1 pbc="T T T"
Si       1.60946829       1.14319897       1.33821008       0.00000000
Si      -1.31471703      -1.45247474       1.41883927       0.00000000
Si       1.24559856      -1.43981741      -1.52933368       0.00000000
Si      -1.45950255       1.26571932      -1.50329645       0.00000000
Si      -2.61278568      -2.59657031      -0.28271947       0.00000000
Si       2.59501329       2.71057227      -0.07469753       0.00000000
Si       2.49971679      -2.86985135      -0.18070871       0.00000000
Si       2.61299745      -0.09695080      -2.89668476       0.00000000
Si      -2.87666739       2.63977593       0.04569447       0.00000000
Si      -0.10081881       2.62009761      -2.89668476       0.00000000
