10
Lattice="16.28999089631971 0.0 0.0 0.0 16.28999089631971 0.0 0.0 0.0 34.48637585096406" Properties=species:S:1:pos:R:3:initial_magmoms:R:1 pbc="T T T"
Si      -0.96477525       0.36807255      -2.06501085       0.00000000
Si       2.13136731       0.85333536       0.25419922       0.00000000
Si      -0.37004364      -2.25969083       0.37145296       0.00000000
Si      -1.37002158       1.29329568       1.42639179       0.00000000
Si      -2.66711283      -2.17294658      -0.32531017       0.00000000
Si      -3.25892853       0.00610875      -1.26409881       0.00000000
Si       0.71096076      -2.44125917       2.43249788       0.00000000
Si       2.14417125       1.08712944       2.61110292       0.00000000
Si       0.29996406      -0.98501720      -3.61072557       0.00000000
Si       0.63480501      -0.43329282       3.68621629       0.00000000
