10
Lattice="16.28999089631971 0.0 0.0 0.0 16.28999089631971 0.0 0.0 0.0 34.48637585096406" Properties=species:S:1:pos:R:3:initial_magmoms:R:1 pbc="T T T"
Si      -0.27001489      -1.66985695      -1.67931501       0.00000000
Si       0.40535710       2.06229771      -1.17412381       0.00000000
Si      -2.07202677      -1.07440695       0.74694083       0.00000000
Si       1.03681289       0.26406090       2.21766658       0.00000000
Si      -0.67099976       2.22136956       2.21537261       0.00000000
Si      -2.08453749      -0.78664410      -2.93644757       0.00000000
Si      -1.70924847       2.95777530      -1.57982176       0.00000000
Si      -1.30797690      -2.74439748       2.37921127       0.00000000
Si       0.31059003      -1.56564982       3.61387560       0.00000000
Si       0.12552097      -3.86638982       0.91695876       0.00000000
