10
Lattice="16.28999089631971 0.0 0.0 0.0 16.28999089631971 0.0 0.0 0.0 34.48637585096406" Properties=species:S:1:pos:R:3:initial_magmoms:R:1 pbc="T T T"
Si      -1.60578675      -1.14235254      -1.31918880       0.00000000
Si       1.32162399      -1.36671471       1.45213933       0.00000000
Si      -1.37881818       1.34987085       1.44890796       0.00000000
Si       1.44072018       1.29308391      -1.57652628       0.00000000
Si      -2.68666083       2.67527412       0.00720076       0.00000000
Si       2.71458189       2.65209345      -0.06600696       0.00000000
Si      -3.48384456       0.71837271      -1.34208777       0.00000000
Si       2.75343354      -2.67356041       0.10807691       0.00000000
Si      -2.72166804      -2.70896673       0.03665904       0.00000000
Si       2.67625152      -0.01086543       2.81967664       0.00000000
