10
Lattice="16.28999089631971 0.0 0.0 0.0 16.28999089631971 0.0 0.0 0.0 34.48637585096406" Properties=species:S:1:pos:R:3:initial_magmoms:R:1 pbc="T T T"
Si      -0.97104690       1.96227711       0.84746867       0.00000000
Si      -1.88750601      -1.19770596      -1.01510704       0.00000000
Si       0.70385832      -1.22877099       2.08980657       0.00000000
Si       1.15621533       1.30023522      -2.06328653       0.00000000
Si       2.26417968      -2.34023769       0.72990455       0.00000000
Si      -0.82432287       0.98903106      -3.38890908       0.00000000
Si       1.31973435       3.04872237       1.49960641       0.00000000
Si       1.70080632       3.30825465      -0.86926408       0.00000000
Si      -3.04279281       0.44080740      -2.31945148       0.00000000
Si       1.45243269      -3.44540016      -1.43180615       0.00000000
