10
Lattice="16.28999089631971 0.0 0.0 0.0 16.28999089631971 0.0 0.0 0.0 34.48637585096406" Properties=species:S:1:pos:R:3:initial_magmoms:R:1 pbc="T T T"
Si       0.08039115       2.14979130      -0.97106791       0.00000000
Si      -0.33298389       0.32814576       2.32738335       0.00000000
Si      -1.82294874      -1.42179120      -0.58857931       0.00000000
Si       1.96152777      -1.20282102      -0.68089939       0.00000000
Si       1.30636026      -1.17143019       2.97507233       0.00000000
Si      -3.29652585      -1.22148936       1.18426281       0.00000000
Si       0.76176927      -3.17944962       1.78104988       0.00000000
Si      -1.21876893      -3.49065378       0.45542733       0.00000000
Si       1.47066120      -2.13882813      -2.80343355       0.00000000
Si       3.74166639       0.31954464      -0.78273771       0.00000000
