10
Lattice="16.28999089631971 0.0 0.0 0.0 16.28999089631971 0.0 0.0 0.0 34.48637585096406" Properties=species:S:1:pos:R:3:initial_magmoms:R:1 pbc="T T T"
Si       1.35772263       1.35565502      -1.35524636       0.00000000
Si      -1.35723393       1.35630876       1.35683273       0.00000000
Si      -1.35488817      -1.35708732      -1.35893640       0.00000000
Si       1.35777150      -1.35874890       1.35703965       0.00000000
Si       2.70674640       0.00698841      -2.71169973       0.00000000
Si      -0.00032580       2.71302198       2.71432070       0.00000000
Si      -2.71393029      -0.00228060       2.71373443       0.00000000
Si       2.71420722       2.71355629       0.00037935       0.00000000
Si      -0.00114030       2.71214721      -2.71614848       0.00000000
Si      -2.71477737       2.71376480      -0.00041384       0.00000000
