10
Lattice="16.28999089631971 0.0 0.0 0.0 16.28999089631971 0.0 0.0 0.0 34.48637585096406" Properties=species:S:1:pos:R:3:initial_magmoms:R:1 pbc="T T T"
Si      -0.12178404       1.92932963       1.29179139       0.00000000
Si      -1.42537500      -1.25012718      -1.35483252       0.00000000
Si       1.39549914       1.39328370      -1.31848386       0.00000000
Si      -0.03119535      -1.58662971       1.78270522       0.00000000
Si      -2.31562350       2.76292314       0.16408627       0.00000000
Si       2.62915713       2.58471705       0.29775554       0.00000000
Si       0.04821840      -2.55779064      -2.69635329       0.00000000
Si      -2.82183525      -2.54383011       0.09645845       0.00000000
Si      -2.67949323       0.17990676      -2.70345749       0.00000000
Si       2.77513182       0.14410134      -2.70652678       0.00000000
