10
Lattice="16.28999089631971 0.0 0.0 0.0 16.28999089631971 0.0 0.0 0.0 34.48637585096406" Properties=species:S:1:pos:R:3:initial_magmoms:R:1 pbc="T T T"
Si       1.42537500       1.25012718       1.35483252       0.00000000
Si      -1.25411823       1.43003394      -1.34862497       0.00000000
Si       1.47359340      -1.30766346      -1.34152077       0.00000000
Si      -1.39646025      -1.29370293       1.45129097       0.00000000
Si       1.39417965      -0.33650253       3.13753774       0.00000000
Si       0.19940589      -2.42828514       2.68521418       0.00000000
Si      -2.60050302       0.05709645      -2.71890739       0.00000000
Si      -2.71316466      -2.65605192       0.06517929       0.00000000
Si       0.11652237      -2.65728996      -2.71280330       0.00000000
Si      -2.49971679       2.86985135       0.18070871       0.00000000
