10
Lattice="16.28999089631971 0.0 0.0 0.0 16.28999089631971 0.0 0.0 0.0 34.48637585096406" Properties=species:S:1:pos:R:3:initial_magmoms:R:1 pbc="T T T"
Si       0.39876291       2.28957483      -0.32941405       0.00000000
Si       2.15449911      -0.35406315       0.91088915       0.00000000
Si      -0.47584719      -1.21015152      -1.98645085       0.00000000
Si      -1.99689336      -0.17782164       1.28427335       0.00000000
Si      -1.80571392       2.79296678      -1.11691088       0.00000000
Si       1.93424202      -2.51740773       1.73245855       0.00000000
Si       2.24746614       1.37573937       2.58068592       0.00000000
Si       2.22373161       2.41404021      -1.84929845       0.00000000
Si      -3.28932567       1.07049735      -1.83026196       0.00000000
Si      -2.13576561      -2.13910506       2.53492247       0.00000000
