10
Lattice="16.28999089631971 0.0 0.0 0.0 16.28999089631971 0.0 0.0 0.0 34.48637585096406" Properties=species:S:1:pos:R:3:initial_magmoms:R:1 pbc="T T T"
Si      -1.13814972      -0.01410714       2.00897046       0.00000000
Si      -0.06828768       2.30863509      -0.36707319       0.00000000
Si       2.23145307      -0.68465241       0.15174014       0.00000000
Si      -0.97039530      -1.30505706      -1.69210946       0.00000000
Si      -2.44990197       2.55339234       0.00575923       0.00000000
Si       0.87905727      -1.30074021      -3.18809480       0.00000000
Si      -3.23982036       0.71570115       1.33058858       0.00000000
Si      -0.36774675       2.02390218       3.03383715       0.00000000
Si       1.19228139       2.59240689      -2.33986742       0.00000000
Si       0.97226865       3.31802443       1.56709628       0.00000000
