10
Lattice="16.28999089631971 0.0 0.0 0.0 16.28999089631971 0.0 0.0 0.0 34.48637585096406" Properties=species:S:1:pos:R:3:initial_magmoms:R:1 pbc="T T T"
Si      -1.23434217       1.30390047      -1.46637187       0.00000000
Si       1.33538157      -1.36073791      -1.32523974       0.00000000
Si      -1.35786924      -1.34403414       1.34473490       0.00000000
Si       1.35264408       1.36941885       1.33807903       0.00000000
Si       2.06160443       0.46897281      -2.72144876       0.00000000
Si      -0.28318536      -2.53948557      -2.55990407       0.00000000
Si       0.35379178       2.42628147      -2.72374273       0.00000000
Si      -0.00348943      -2.70148652       2.70098136       0.00000000
Si       2.71152656       0.01124010       2.70063650       0.00000000
Si      -2.71823085       0.01226637       2.70160212       0.00000000
