10
Lattice="16.28999089631971 0.0 0.0 0.0 16.28999089631971 0.0 0.0 0.0 34.48637585096406" Properties=species:S:1:pos:R:3:initial_magmoms:R:1 pbc="T T T"
Si       1.05564087      -1.64716497      -1.27741401       0.00000000
Si      -1.36647036      -1.33889301       1.35418073       0.00000000
Si      -1.28267460       1.42165342      -1.36266093       0.00000000
Si       1.35946566       1.36911980       1.35214603       0.00000000
Si       2.43414954       0.17366837      -2.55249295       0.00000000
Si      -2.69737965      -2.70021573      -0.04130780       0.00000000
Si      -0.00135207      -2.70497241       2.70594396       0.00000000
Si       2.71384547       0.01166742       2.70839249       0.00000000
Si      -2.71549413       0.00977361       2.71063411       0.00000000
Si       2.71733490       2.71315394       0.00741113       0.00000000
