10
Lattice="16.28999089631971 0.0 0.0 0.0 16.28999089631971 0.0 0.0 0.0 34.48637585096406" Properties=species:S:1:pos:R:3:initial_magmoms:R:1 pbc="T T T"
Si      -1.23365799      -1.19143335      -1.61623939       0.00000000
Si       1.28744757       1.50930922      -1.54478358       0.00000000
Si       1.46225556      -1.73069751       1.11818688       0.00000000
Si      -2.75094117      -0.65538743       0.99403585       0.00000000
Si      -1.39592268       1.78663018       2.51857592       0.00000000
Si       2.35968699      -0.15103599       2.58775563       0.00000000
Si      -2.62915713      -2.58471705      -0.29775554       0.00000000
Si      -1.74249243      -0.47132509       3.24727345       0.00000000
Si       0.14597469      -2.44061571      -3.00428231       0.00000000
Si      -2.58012423       0.29859081      -2.98245242       0.00000000
