10
Lattice="16.28999089631971 0.0 0.0 0.0 16.28999089631971 0.0 0.0 0.0 34.48637585096406" Properties=species:S:1:pos:R:3:initial_magmoms:R:1 pbc="T T T"
Si      -1.22653926       1.96429544       0.01917444       0.00000000
Si      -0.82758087      -0.84299936       2.04318097       0.00000000
Si      -0.73880037      -1.62781965      -1.57033800       0.00000000
Si       2.15509274      -0.33635592      -0.98513836       0.00000000
Si       1.09433844      -1.08457517      -2.99303975       0.00000000
Si      -0.28833300      -3.42836964      -0.09628602       0.00000000
Si       0.41065675      -2.78141229       2.09608310       0.00000000
Si      -3.07209852      -1.15459936       1.32972642       0.00000000
Si      -3.19686363       1.25665784       1.23426808       0.00000000
Si      -1.33903800       2.90789369      -2.13163857       0.00000000
