10
Lattice="16.28999089631971 0.0 0.0 0.0 16.28999089631971 0.0 0.0 0.0 34.48637585096406" Properties=species:S:1:pos:R:3:initial_magmoms:R:1 pbc="T T T"
Si       1.34255664       1.36528119       1.38373902       0.00000000
Si      -1.37365425      -1.34814411       1.38273891       0.00000000
Si      -1.33532388       1.31481477      -1.50294469       0.00000000
Si       1.46919510      -1.41543810      -1.42516062       0.00000000
Si      -0.01365102      -2.58937695      -2.77092119       0.00000000
Si      -2.70493821       2.68993512       0.01977105       0.00000000
Si       2.68221580       2.71669959       0.02068839       0.00000000
Si       2.70353727      -2.71933857       0.04121124       0.00000000
Si      -2.72828178      -2.70399339       0.01520160       0.00000000
Si       2.69923671       0.00866628       2.74253747       0.00000000
