10
Lattice="16.28999089631971 0.0 0.0 0.0 16.28999089631971 0.0 0.0 0.0 34.48637585096406" Properties=species:S:1:pos:R:3:initial_magmoms:R:1 pbc="T T T"
Si       1.33965916       1.35141840      -1.36305063       0.00000000
Si      -1.35435060       1.35795069       1.35766040       0.00000000
Si       1.35668007      -1.35661491       1.35879845       0.00000000
Si      -1.34255664      -1.36528119      -1.38373902       0.00000000
Si      -0.06108750       2.60003061      -2.82263902       0.00000000
Si       2.71362471      -2.71520091      -0.00444874       0.00000000
Si      -2.71621089      -2.71342530      -0.00100011       0.00000000
Si       2.71436916       2.71538010      -0.00762149       0.00000000
Si      -2.71466334      -0.00009774       2.71552772       0.00000000
Si       0.00122175      -2.71505430       2.71535529       0.00000000
