10
Lattice="16.28999089631971 0.0 0.0 0.0 16.28999089631971 0.0 0.0 0.0 34.48637585096406" Properties=species:S:1:pos:R:3:initial_magmoms:R:1 pbc="T T T"
Si       1.35518139       1.33701804       1.38800498       0.00000000
Si      -1.37441988      -1.36720341       1.38341829       0.00000000
Si       1.28295153      -1.48353030      -1.43742744       0.00000000
Si      -0.75500892       1.89097578      -1.36872019       0.00000000
Si       2.71810636       2.69029350       0.00831812       0.00000000
Si       2.68369819      -2.73214251       0.02216096       0.00000000
Si      -2.70969489       2.70844056      -0.00603512       0.00000000
Si      -0.01366731       2.70368388       2.74121664       0.00000000
Si       2.70116319      -0.00952965       2.74597576       0.00000000
Si      -2.70345582      -2.75890698       0.02124362       0.00000000
