10
Lattice="16.28999089631971 0.0 0.0 0.0 16.28999089631971 0.0 0.0 0.0 34.48637585096406" Properties=species:S:1:pos:R:3:initial_magmoms:R:1 pbc="T T T"
Si       1.35622395       1.35707103       1.35776386       0.00000000
Si      -1.35736425       1.35711990      -1.35735003       0.00000000
Si      -1.35697329      -1.35904212       1.35655684       0.00000000
Si       1.35837423      -1.35728280      -1.35728105       0.00000000
Si       2.71391826       0.00164529      -2.71238946       0.00000000
Si       0.00221544      -2.71502172       2.71183768       0.00000000
Si      -2.71480995      -2.71497285      -0.00024140       0.00000000
Si       0.00244350      -2.71443528      -2.71549324       0.00000000
Si       2.71501112      -2.71495656      -0.00020692       0.00000000
Si       2.71536035       2.71466334       0.00024140       0.00000000
