10
Lattice="16.28999089631971 0.0 0.0 0.0 16.28999089631971 0.0 0.0 0.0 34.48637585096406" Properties=species:S:1:pos:R:3:initial_magmoms:R:1 pbc="T T T"
Si      -1.37963268       1.24918236       1.38804292       0.00000000
Si      -1.36853919      -1.33771851      -1.36455768       0.00000000
Si       1.34690607       1.37827440      -1.36169531       0.00000000
Si       1.29904605      -1.49586183       1.44677325       0.00000000
Si       2.69791626      -2.69014689      -0.01041489       0.00000000
Si      -0.01497051      -2.69483841      -2.72266641       0.00000000
Si       2.70149355       0.02085120      -2.72314922       0.00000000
Si      -2.72691342      -2.70189198       0.01017349       0.00000000
Si       2.69760838       2.73122442       0.02241616       0.00000000
Si      -2.72873790       0.02088378      -2.72228706       0.00000000
