10
Lattice="16.28999089631971 0.0 0.0 0.0 16.28999089631971 0.0 0.0 0.0 34.48637585096406" Properties=species:S:1:pos:R:3:initial_magmoms:R:1 pbc="T T T"
Si       1.37963268      -1.24918236      -1.38804292       0.00000000
Si       1.23365799       1.19143335       1.61623939       0.00000000
Si      -1.39549914      -1.39328370       1.31848386       0.00000000
Si      -1.34646624       1.49002416      -1.36621303       0.00000000
Si      -1.51728318       0.53604593       2.61027525       0.00000000
Si       2.52110556       2.70074258       0.07145581       0.00000000
Si       0.01109349      -2.58690087      -2.75260060       0.00000000
Si       2.67867873      -2.74504419       0.05873033       0.00000000
Si      -2.70759348       0.12948966      -2.75232471       0.00000000
Si      -2.82087414      -2.64341088      -0.03634866       0.00000000
