10
Lattice="16.28999089631971 0.0 0.0 0.0 16.28999089631971 0.0 0.0 0.0 34.48637585096406" Properties=species:S:1:pos:R:3:initial_magmoms:R:1 pbc="T T T"
Si       0.89743143       1.57966152       1.46956876       0.00000000
Si       1.60804033      -1.04710491      -1.35272885       0.00000000
Si      -0.64288485      -2.00898054       1.29486068       0.00000000
Si      -1.46225556       1.73069751      -1.11818688       0.00000000
Si      -0.95389353       0.92416169       2.93141256       0.00000000
Si      -0.01723482      -2.20578003      -2.67569594       0.00000000
Si       2.75456474       0.69097002      -2.59613582       0.00000000
Si      -2.69591355       0.53926416      -2.73442627       0.00000000
Si      -1.35089712      -1.37499003       3.45008794       0.00000000
Si       2.62525472       0.70301663       2.88844251       0.00000000
