10
Lattice="16.28999089631971 0.0 0.0 0.0 16.28999089631971 0.0 0.0 0.0 34.48637585096406" Properties=species:S:1:pos:R:3:initial_magmoms:R:1 pbc="T T T"
Si      -1.52458110      -1.72890657       0.01065630       0.00000000
Si       1.86706110      -0.90702720      -1.01607266       0.00000000
Si      -0.45046737       1.80054999      -1.47405199       0.00000000
Si       0.69898975       0.64695735       2.19236911       0.00000000
Si      -0.53924787       2.58537028       2.13946698       0.00000000
Si       3.24660419       0.95992083      -0.31927505       0.00000000
Si       0.28833300       3.42836964       0.09628602       0.00000000
Si       2.43930437      -2.43022365       0.70766083       0.00000000
Si      -1.03402404      -2.96867331      -1.96820754       0.00000000
Si      -1.23290865      -2.88860796       2.05621682       0.00000000
