10
Lattice="16.28999089631971 0.0 0.0 0.0 16.28999089631971 0.0 0.0 0.0 34.48637585096406" Properties=species:S:1:pos:R:3:initial_magmoms:R:1 pbc="T T T"
Si       1.52458110       1.72890657      -0.01065630       0.00000000
Si      -2.23145307       0.68465241      -0.15174014       0.00000000
Si       0.29167245      -1.15970139       2.04556053       0.00000000
Si       0.49055706      -1.23976674      -1.97886384       0.00000000
Si       2.34351754      -2.29631985       1.54861157       0.00000000
Si       3.39164220       0.82187937      -1.02672896       0.00000000
Si      -1.35239580      -0.61608780      -3.33983494       0.00000000
Si      -0.07363080      -3.39262056      -1.37335171       0.00000000
Si      -1.48846617      -2.68206705       2.14739885       0.00000000
Si      -3.20184837      -0.62040465      -1.84384960       0.00000000
