10
Lattice="16.28999089631971 0.0 0.0 0.0 16.28999089631971 0.0 0.0 0.0 34.48637585096406" Properties=species:S:1:pos:R:3:initial_magmoms:R:1 pbc="T T T"
Si       0.42524068      -1.25735994       1.93020354       0.00000000
Si      -0.79044456      -1.37256282      -1.76184095       0.00000000
Si       2.26982091       0.37660851      -0.61320259       0.00000000
Si      -1.65767270       1.42899138       0.94758268       0.00000000
Si      -1.73651630      -2.01851019       2.35417928       0.00000000
Si       1.29563004      -2.41640973      -2.32831448       0.00000000
Si      -3.12183419      -0.16573446       2.08101254       0.00000000
Si       2.42120388      -0.36499374      -2.87754481       0.00000000
Si       1.35367131       0.26334414       3.53316567       0.00000000
Si      -1.68085337       0.09269010      -3.43650030       0.00000000
