10
Lattice="16.28999089631971 0.0 0.0 0.0 16.28999089631971 0.0 0.0 0.0 34.48637585096406" Properties=species:S:1:pos:R:3:initial_magmoms:R:1 pbc="T T T"
Si       1.35730916       1.35710361       1.35693619       0.00000000
Si       1.35717558      -1.35710687      -1.35728105       0.00000000
Si      -1.35710073       1.35757602      -1.35755694       0.00000000
Si      -1.35995148      -1.35702542       1.35748797       0.00000000
Si      -2.71417176       0.00237834       2.71307919       0.00000000
Si      -0.00083128      -2.71347596      -2.71445865       0.00000000
Si       2.71418471      -0.00074934      -2.71480351       0.00000000
Si      -2.71557270       0.00027693      -2.71383789       0.00000000
Si       2.71486889       2.71511946       0.00003449       0.00000000
Si      -2.71511658      -2.71492917       0.00017243       0.00000000
