10
Lattice="16.28999089631971 0.0 0.0 0.0 16.28999089631971 0.0 0.0 0.0 34.48637585096406" Properties=species:S:1:pos:R:3:initial_magmoms:R:1 pbc="T T T"
Si      -1.78029730      -0.94413582       1.20538711       0.00000000
Si       1.86963099      -1.47224133       0.13215118       0.00000000
Si      -0.74721808      -0.16298145      -2.35507596       0.00000000
Si       1.13551074       1.94116527       1.06069943       0.00000000
Si      -0.37955065      -2.19274803       2.66497550       0.00000000
Si       2.37734142      -1.24719498      -2.21319893       0.00000000
Si       2.36637825       0.55482111       2.65070503       0.00000000
Si       1.00023858      -3.46942791       1.25274727       0.00000000
Si      -3.19216789      -2.22971004      -0.31858536       0.00000000
Si       1.12378357       0.03186324      -3.84281905       0.00000000
