10
Lattice="16.28999089631971 0.0 0.0 0.0 16.28999089631971 0.0 0.0 0.0 34.48637585096406" Properties=species:S:1:pos:R:3:initial_magmoms:R:1 pbc="T T T"
Si      -2.11604168       0.85794543       0.51598544       0.00000000
Si       0.95563656      -1.72051722       1.28782545       0.00000000
Si      -0.00174303      -1.33151202      -1.97993292       0.00000000
Si       1.59519825       1.67982480       0.61482345       0.00000000
Si       3.08025981      -1.30398192       0.16915577       0.00000000
Si       2.42115012      -0.93343329      -2.23092490       0.00000000
Si      -3.14642069      -1.26283338       0.72886996       0.00000000
Si      -2.78514107       1.49358123      -1.62282630       0.00000000
Si      -1.73745882      -0.02945232      -3.10636204       0.00000000
Si       0.35769582       3.06598977       2.15898628       0.00000000
