10
Lattice="16.28999089631971 0.0 0.0 0.0 16.28999089631971 0.0 0.0 0.0 34.48637585096406" Properties=species:S:1:pos:R:3:initial_magmoms:R:1 pbc="T T T"
Si      -1.60804033       1.04710491       1.35272885       0.00000000
Si      -1.62527515      -1.15867512      -1.32296709       0.00000000
Si       1.14652441       1.73807493      -1.24340698       0.00000000
Si       1.63559908      -1.32770016       1.38421493       0.00000000
Si      -2.25092518      -0.96187563       2.64758953       0.00000000
Si      -0.22640494      -2.35296018      -2.78015523       0.00000000
Si       2.47960027       0.38832102      -2.76991277       0.00000000
Si       2.92540870      -2.44296243      -0.29406549       0.00000000
Si      -0.71060890       2.62676643       2.82229760       0.00000000
Si       2.48241844       0.26207352       3.08553226       0.00000000
