10
Lattice="16.28999089631971 0.0 0.0 0.0 16.28999089631971 0.0 0.0 0.0 34.48637585096406" Properties=species:S:1:pos:R:3:initial_magmoms:R:1 pbc="T T T"
Si      -2.28847312      -0.47182356       0.11425343       0.00000000
Si       0.48907467      -2.32147161       0.37255653       0.00000000
Si       0.25914132      -0.15886008      -2.39739073       0.00000000
Si       0.31043853       1.71053375       1.76956591       0.00000000
Si       3.16307817       0.14452488       0.63789485       0.00000000
Si       1.89643293       0.27000675       2.77215439       0.00000000
Si       2.78326053      -2.10944097      -0.04355632       0.00000000
Si      -2.35404251      -1.66679280       2.15312359       0.00000000
Si      -0.54403713       1.97323281      -2.96696803       0.00000000
Si       2.91178863       2.23831509      -0.51822706       0.00000000
