10
Lattice="16.28999089631971 0.0 0.0 0.0 16.28999089631971 0.0 0.0 0.0 34.48637585096406" Properties=species:S:1:pos:R:3:initial_magmoms:R:1 pbc="T T T"
Si      -1.51799668       1.64633256      -0.70103944       0.00000000
Si      -1.17456927      -1.41222897       1.69631822       0.00000000
Si       1.41011127       1.22807052       1.66584949       0.00000000
Si       0.84976785      -0.08327448      -2.46343218       0.00000000
Si       3.37370787       2.26504305       0.39759365       0.00000000
Si      -2.95149455       2.76832490       0.76121307       0.00000000
Si      -2.31008001      -3.35339424       0.63561879       0.00000000
Si      -0.65888163      -1.12819653      -3.93379412       0.00000000
Si       0.06682158       2.59341484       3.28681007       0.00000000
Si      -2.79183626       1.69640802      -2.63169130       0.00000000
