10
Lattice="10.86 0.0 0.0 0.0 10.86 0.0 0.0 0.0 10.86" Properties=species:S:1:pos:R:3:initial_magmoms:R:1 pbc="T T T"
Si      -1.54334718       1.06663662      -1.14866220       0.00000000
Si       1.17165282       1.06663662       1.56633780       0.00000000
Si       1.17165282      -1.64836338      -1.14866220       0.00000000
Si      -0.18584718       2.42413662      -2.50616220       0.00000000
Si       2.52915282       2.42413662       0.20883780       0.00000000
Si       2.52915282      -0.29086338      -2.50616220       0.00000000
Si      -2.90084718      -0.29086338      -2.50616220       0.00000000
Si       2.52915282      -0.29086338       2.92383780       0.00000000
Si      -0.18584718      -3.00586338      -2.50616220       0.00000000
Si       2.52915282      -3.00586338       0.20883780       0.00000000
