10
Lattice="16.28999089631971 0.0 0.0 0.0 16.28999089631971 0.0 0.0 0.0 34.24959146834617" Properties=species:S:1:pos:R:3:initial_magmoms:R:1 pbc="T T T"
Si      -1.26320108       1.39745394      -1.40879951       0.00000000
Si      -1.35955643      -1.34549536       1.36974468       0.00000000
Si       1.35504079       1.36594908       1.36666221       0.00000000
Si       1.37724243      -1.41258898      -1.39911029       0.00000000
Si       0.69277410       2.10356028      -2.77361708       0.00000000
Si      -2.34549239      -0.24063588      -2.80903117       0.00000000
Si       2.37913608       0.21796020      -2.85335017       0.00000000
Si      -2.71661117      -2.69673048      -0.00971661       0.00000000
Si      -0.00413419      -2.70393857       2.72654300       0.00000000
Si       2.72810046      -2.70698165       0.00796988       0.00000000
