10
Lattice="16.28999089631971 0.0 0.0 0.0 16.28999089631971 0.0 0.0 0.0 34.24959146834617" Properties=species:S:1:pos:R:3:initial_magmoms:R:1 pbc="T T T"
Si      -2.16493774       0.95970973      -0.07993859       0.00000000
Si       1.10563488      -0.05312169      -2.11196799       0.00000000
Si       1.81475487       1.05995025       1.12873017       0.00000000
Si      -0.40534407      -1.95967071       1.31672628       0.00000000
Si      -0.88516602      -1.82961135      -2.45624507       0.00000000
Si       2.36913615      -0.47056923       2.81079704       0.00000000
Si       3.23255502      -0.93711483      -1.55976152       0.00000000
Si       0.33418935      -1.29828042       3.46266988       0.00000000
Si       0.55232874      -3.71781783       0.04219552       0.00000000
Si      -2.20354504       2.61624635      -1.77984951       0.00000000
