10
Lattice="16.28999089631971 0.0 0.0 0.0 16.28999089631971 0.0 0.0 0.0 34.24959146834617" Properties=species:S:1:pos:R:3:initial_magmoms:R:1 pbc="T T T"
Si       1.07730657       1.55738916      -1.51708650       0.00000000
Si      -1.57426560      -1.11552291      -1.47259626       0.00000000
Si      -1.05484266       1.26011295       2.04706498       0.00000000
Si       1.89530892      -1.96351515       0.00958989       0.00000000
Si      -2.40937245      -2.85122730      -0.03055065       0.00000000
Si       2.43232506       0.18596664      -2.90553147       0.00000000
Si       2.54426994       2.82888882      -0.06432077       0.00000000
Si      -0.29453949      -2.52373965      -2.91666259       0.00000000
Si       0.01109349      -1.68886575       3.51705826       0.00000000
Si      -2.32283997      -2.05930035       2.41750876       0.00000000
