10
Lattice="16.28999089631971 0.0 0.0 0.0 16.28999089631971 0.0 0.0 0.0 34.24959146834617" Properties=species:S:1:pos:R:3:initial_magmoms:R:1 pbc="T T T"
Si      -1.74838941      -0.93875900       1.26429013       0.00000000
Si      -1.26371304       1.29469352      -1.55380208       0.00000000
Si       0.92613537       1.85491803       1.37245040       0.00000000
Si       1.44034551      -1.41149480      -1.53393731       0.00000000
Si      -0.33027975      -1.45909418       3.18517954       0.00000000
Si      -2.54343915       2.70291027      -0.10973575       0.00000000
Si      -3.37854600       0.96720588       1.33230985       0.00000000
Si      -2.55906126      -2.82038432       0.04205852       0.00000000
Si       2.81331558       2.72209989       0.10045411       0.00000000
Si      -2.62099584      -0.06812131      -2.92580724       0.00000000
