10
Lattice="16.28999089631971 0.0 0.0 0.0 16.28999089631971 0.0 0.0 0.0 34.24959146834617" Properties=species:S:1:pos:R:3:initial_magmoms:R:1 pbc="T T T"
Si      -0.01599678      -1.52629807       1.76563593       0.00000000
Si       0.37554966       2.28244077       0.40054920       0.00000000
Si       2.07519939      -0.67217753      -1.10674192       0.00000000
Si      -2.33393346      -0.37043460      -1.09954950       0.00000000
Si      -1.06593615       2.94897870      -1.46999329       0.00000000
Si      -0.57332655      -3.45972626       0.33256372       0.00000000
Si       3.65576922       0.49259331       0.18741387       0.00000000
Si      -2.70024669      -2.57573312      -0.21964275       0.00000000
Si       2.74440888       2.61974151       0.16895333       0.00000000
Si      -0.01109349       1.68886575      -3.51705826       0.00000000
