10
Lattice="16.28999089631971 0.0 0.0 0.0 16.28999089631971 0.0 0.0 0.0 34.24959146834617" Properties=species:S:1:pos:R:3:initial_magmoms:R:1 pbc="T T T"
Si       2.26072620      -0.55762788      -0.49281765       0.00000000
Si      -0.21848148       2.39491345       0.45336210       0.00000000
Si      -0.15758946      -0.64276593       2.35993517       0.00000000
Si      -1.12827798      -1.45088581      -1.63192545       0.00000000
Si       1.75112613       0.66737524       3.15925258       0.00000000
Si       1.67423733       2.70499360       1.86523379       0.00000000
Si       2.17119636      -2.88831541      -0.95460515       0.00000000
Si      -3.17500245      -0.35497050      -1.97544904       0.00000000
Si       2.70848943       0.48613270      -2.60475139       0.00000000
Si      -2.20563342       2.54411356       1.87746090       0.00000000
