10
Lattice="16.28999089631971 0.0 0.0 0.0 16.28999089631971 0.0 0.0 0.0 34.24959146834617" Properties=species:S:1:pos:R:3:initial_magmoms:R:1 pbc="T T T"
Si       2.13630318       0.14292846       0.89826454       0.00000000
Si      -0.68711220       2.24367057      -0.54093835       0.00000000
Si       0.01690902      -1.44593298      -2.05620962       0.00000000
Si      -0.82451835      -1.14310188       2.56838313       0.00000000
Si      -2.42795934      -2.30985684       1.27127705       0.00000000
Si      -1.58531022      -3.27937248      -0.88247547       0.00000000
Si      -2.39489064       2.08422405      -2.13806619       0.00000000
Si       2.17596933       1.77894945       2.66232639       0.00000000
Si      -2.06500185       3.11744988       1.23014326       0.00000000
Si       3.95529345       0.66065724      -0.54607579       0.00000000
