10
Lattice="16.28999089631971 0.0 0.0 0.0 16.28999089631971 0.0 0.0 0.0 34.24959146834617" Properties=species:S:1:pos:R:3:initial_magmoms:R:1 pbc="T T T"
Si      -1.32872643       1.40232465      -1.32981648       0.00000000
Si      -1.36124127      -1.34739477       1.36995702       0.00000000
Si       1.35216774       1.37310039       1.36721706       0.00000000
Si       1.54973286      -1.11785238      -1.46078699       0.00000000
Si      -2.71164969      -2.69343747      -0.01116537       0.00000000
Si       2.72712519      -2.68121997      -0.01239836       0.00000000
Si       0.24120603       2.47899591      -2.90790295       0.00000000
Si       2.19683682       0.83626344      -3.02352963       0.00000000
Si      -0.00578295      -2.69669547       2.72805683       0.00000000
Si       2.71083519       0.01580130       2.72754309       0.00000000
