10
Lattice="16.28999089631971 0.0 0.0 0.0 16.28999089631971 0.0 0.0 0.0 34.24959146834617" Properties=species:S:1:pos:R:3:initial_magmoms:R:1 pbc="T T T"
Si      -1.84888242       0.15656319      -1.40341204       0.00000000
Si       1.94808852      -1.18071549      -0.53713664       0.00000000
Si      -0.57889773      -1.32388830       1.86403506       0.00000000
Si       0.69957405       2.30327568       0.17443327       0.00000000
Si       3.03075450      -0.69858036       1.51311355       0.00000000
Si      -1.56577851       0.25749603       3.26607712       0.00000000
Si       3.10360338       0.19254780      -1.99651255       0.00000000
Si      -1.17854892       1.78678494      -3.07592328       0.00000000
Si       2.40785748       2.41360785      -1.56781018       0.00000000
Si       1.55352843      -2.13009669       2.68325149       0.00000000
