10
Lattice="16.28999089631971 0.0 0.0 0.0 16.28999089631971 0.0 0.0 0.0 34.24959146834617" Properties=species:S:1:pos:R:3:initial_magmoms:R:1 pbc="T T T"
Si       1.58601069       1.39365837       0.95484489       0.00000000
Si       0.98688078      -1.58138433      -1.40204206       0.00000000
Si      -1.19545794      -1.42804656       1.46495859       0.00000000
Si      -1.32260139       1.62639360      -1.14260126       0.00000000
Si      -2.83843476       2.03651064       0.64115271       0.00000000
Si      -3.24882873      -1.42289892       0.26125603       0.00000000
Si       1.56577851      -0.25749603      -3.26607712       0.00000000
Si       3.09627288       0.03442077       2.07689639       0.00000000
Si       0.55736235       2.33583939       2.88878341       0.00000000
Si      -0.73370160      -3.16646649      -1.99990326       0.00000000
