10
Lattice="16.28999089631971 0.0 0.0 0.0 16.28999089631971 0.0 0.0 0.0 34.24959146834617" Properties=species:S:1:pos:R:3:initial_magmoms:R:1 pbc="T T T"
Si       0.81067185       1.88162532       1.22223160       0.00000000
Si      -1.57882680      -1.41392313       1.19212620       0.00000000
Si       1.29974652      -1.31487993      -1.58527748       0.00000000
Si      -1.40222691       1.38057750      -1.60055280       0.00000000
Si       1.83953196      -0.69585993       2.14029242       0.00000000
Si       2.55906126       2.82038432      -0.04205852       0.00000000
Si       2.74040154      -2.65437405      -0.20169596       0.00000000
Si      -2.52884331       2.89321430      -0.23738405       0.00000000
Si      -3.28065939      -0.22726179       2.14145690       0.00000000
Si       2.64863997       0.04272867      -2.96187208       0.00000000
