10
Lattice="16.28999089631971 0.0 0.0 0.0 16.28999089631971 0.0 0.0 0.0 34.24959146834617" Properties=species:S:1:pos:R:3:initial_magmoms:R:1 pbc="T T T"
Si       1.29461517      -1.75778874      -0.77763741       0.00000000
Si       0.76654224       0.58440375       2.14292964       0.00000000
Si      -2.17580643      -0.85835268       0.32218609       0.00000000
Si       0.50441985       1.92235032      -1.27977095       0.00000000
Si      -3.13347924       0.89979444       1.59671685       0.00000000
Si       1.11869946      -3.38067999       0.95813286       0.00000000
Si       3.52939140      -0.96050727      -0.62693912       0.00000000
Si      -1.62250029       2.80634346      -1.83197742       0.00000000
Si       0.44176851      -2.13977295      -3.11068663       0.00000000
Si       2.93193936       1.68324570       1.86937800       0.00000000
