10
Lattice="16.28999089631971 0.0 0.0 0.0 16.28999089631971 0.0 0.0 0.0 34.24959146834617" Properties=species:S:1:pos:R:3:initial_magmoms:R:1 pbc="T T T"
Si      -1.61516232       0.35313462      -1.61586238       0.00000000
Si       0.35623135      -2.28563035       0.23296585       0.00000000
Si       2.10448718       0.79793307      -0.82568961       0.00000000
Si      -1.24899570       0.93022416       1.90027115       0.00000000
Si       2.15272187      -1.40467041       1.99517682       0.00000000
Si      -1.94198859      -2.78583435      -0.43945675       0.00000000
Si      -2.14131303       2.57926086      -1.46379411       0.00000000
Si      -0.67368924       3.15693684       1.81762684       0.00000000
Si      -3.42320571      -1.09177209      -1.15859583       0.00000000
Si       3.75494111       0.42876909       0.82144266       0.00000000
