10
Lattice="16.28999089631971 0.0 0.0 0.0 16.28999089631971 0.0 0.0 0.0 34.24959146834617" Properties=species:S:1:pos:R:3:initial_magmoms:R:1 pbc="T T T"
Si      -0.44776323      -1.04376057       2.11193374       0.00000000
Si       0.48446460       2.23573734       0.72222154       0.00000000
Si       2.04838605      -1.19497250      -0.38869883       0.00000000
Si      -1.57833810      -0.22365356      -1.87547443       0.00000000
Si      -2.68332138      -2.13008759      -1.08454817       0.00000000
Si       3.57892929       0.41172975       0.23228086       0.00000000
Si       2.61938313       2.56609854      -0.18833861       0.00000000
Si      -2.70848943      -0.48613270       2.60475139       0.00000000
Si      -0.53729307      -3.37444811       1.65014624       0.00000000
Si      -1.07849574      -3.81444101      -0.62067144       0.00000000
