10
Lattice="16.28999089631971 0.0 0.0 0.0 16.28999089631971 0.0 0.0 0.0 34.24959146834617" Properties=species:S:1:pos:R:3:initial_magmoms:R:1 pbc="T T T"
Si      -0.08952984      -2.33068753      -0.46178750       0.00000000
Si      -2.26072620       0.55762788       0.49281765       0.00000000
Si       0.44776323       1.04376057      -2.11193374       0.00000000
Si       1.38233682       0.29319231       2.02196001       0.00000000
Si       2.49614928      -0.15121192      -2.50063257       0.00000000
Si       0.93222783       3.27949791      -1.38971220       0.00000000
Si      -3.38900418      -0.89325793      -1.13910780       0.00000000
Si      -2.41831566      -0.08513806       2.85275282       0.00000000
Si      -0.50960007       1.22500311       3.65207023       0.00000000
Si      -1.31007438      -3.42280171       1.31388356       0.00000000
