10
Lattice="16.28999089631971 0.0 0.0 0.0 16.28999089631971 0.0 0.0 0.0 34.24959146834617" Properties=species:S:1:pos:R:3:initial_magmoms:R:1 pbc="T T T"
Si       1.29500613      -1.34483724      -1.39892535       0.00000000
Si      -1.29990942      -1.39882230       1.45742368       0.00000000
Si      -1.41087690       1.38523644      -1.39789786       0.00000000
Si       1.77776028       0.97997382       1.40570677       0.00000000
Si       2.53628784      -2.66678703       0.20820338       0.00000000
Si      -2.61114039      -0.00495216       2.75890888       0.00000000
Si       2.62788651       2.75175567       0.07195843       0.00000000
Si       2.64761370       0.03086955      -2.76226535       0.00000000
Si      -2.76687279      -2.67032196       0.00465795       0.00000000
Si      -0.06766866      -2.68296300      -2.76658080       0.00000000
