10
Lattice="16.28999089631971 0.0 0.0 0.0 16.28999089631971 0.0 0.0 0.0 34.24959146834617" Properties=species:S:1:pos:R:3:initial_magmoms:R:1 pbc="T T T"
Si       1.56056571      -1.74283941       0.37321801       0.00000000
Si      -0.84264912       0.96951564       2.15375251       0.00000000
Si      -1.79649052      -0.88095994      -1.76221097       0.00000000
Si       1.60221924       1.83343950      -1.17373416       0.00000000
Si      -2.15272187       1.40467041      -1.99517682       0.00000000
Si      -0.04823469       2.20260348      -2.82086643       0.00000000
Si       1.58531022       3.27937248       0.88247547       0.00000000
Si       3.65026320      -1.35343999      -0.69125989       0.00000000
Si      -0.67339602      -2.10788432      -3.38471777       0.00000000
Si      -1.84454276      -0.66103354       3.60799239       0.00000000
