10
Lattice="16.28999089631971 0.0 0.0 0.0 16.28999089631971 0.0 0.0 0.0 34.24959146834617" Properties=species:S:1:pos:R:3:initial_magmoms:R:1 pbc="T T T"
Si       1.34320824       1.34574948       1.40072687       0.00000000
Si      -1.36972836      -1.36972836       1.40052138       0.00000000
Si      -1.40882436       1.39388643      -1.52742646       0.00000000
Si       1.39198050      -1.41390684      -1.53779039       0.00000000
Si      -0.52505928      -1.90656531      -2.99022531       0.00000000
Si      -2.48069007      -0.26383284      -2.87459863       0.00000000
Si       2.70102861       2.68367976       0.00427778       0.00000000
Si       2.67744069      -2.72543103       0.04065771       0.00000000
Si      -2.73909834       2.68978851       0.01947433       0.00000000
Si       2.70202230      -0.01057221       2.76105291       0.00000000
