10
Lattice="16.28999089631971 0.0 0.0 0.0 16.28999089631971 0.0 0.0 0.0 34.24959146834617" Properties=species:S:1:pos:R:3:initial_magmoms:R:1 pbc="T T T"
Si      -1.35602847      -1.35785295       1.35714082       0.00000000
Si       1.35736425      -1.35749457      -1.35700382       0.00000000
Si      -1.35762489       1.35729909      -1.35751757       0.00000000
Si       1.35588186       1.35855342       1.35816831       0.00000000
Si      -0.00011403      -2.71205694      -2.71448714       0.00000000
Si      -2.71313208      -0.00016290      -2.71448714       0.00000000
Si       0.00171045       2.71358820       2.71438439       0.00000000
Si       2.71471221      -2.71487511       0.00020550       0.00000000
Si      -2.71459818      -2.71520091       0.00003425       0.00000000
Si       2.71520091       2.71489140      -0.00003425       0.00000000
