10
Lattice="16.28999089631971 0.0 0.0 0.0 16.28999089631971 0.0 0.0 0.0 34.24959146834617" Properties=species:S:1:pos:R:3:initial_magmoms:R:1 pbc="T T T"
Si      -1.35826020      -1.35562122      -1.35775731       0.00000000
Si       1.35879777      -1.35734796       1.35652433       0.00000000
Si       1.35695700       1.35925389      -1.35796281       0.00000000
Si      -1.35984033       1.36189287       1.36214126       0.00000000
Si       2.71296918      -2.71238274       0.00030825       0.00000000
Si      -2.71531494      -2.71283886       0.00003425       0.00000000
Si      -0.00053757      -2.71363707      -2.71537763       0.00000000
Si       2.71492398       0.00200367      -2.71513788       0.00000000
Si       2.71474479       2.71635750      -0.00023975       0.00000000
Si      -2.71570590       0.00154755      -2.71541188       0.00000000
