10
Lattice="16.28999089631971 0.0 0.0 0.0 16.28999089631971 0.0 0.0 0.0 34.24959146834617" Properties=species:S:1:pos:R:3:initial_magmoms:R:1 pbc="T T T"
Si       1.57341852       1.53274239      -0.70749421       0.00000000
Si      -1.87069473      -0.15156216      -1.43170222       0.00000000
Si      -0.50792220      -0.44126352       2.31232821       0.00000000
Si       0.89625951      -2.32253046      -0.83195729       0.00000000
Si      -0.55946376      -1.54543230      -2.73318743       0.00000000
Si       3.18067137       0.97270848       0.85819249       0.00000000
Si       3.17345490      -1.43604495       0.36979305       0.00000000
Si      -0.34823133      -3.44344536       1.01714494       0.00000000
Si       0.46156086       3.59824923      -0.45384159       0.00000000
Si      -2.89171935      -0.63317601       2.34668057       0.00000000
