10
Lattice="16.28999089631971 0.0 0.0 0.0 16.28999089631971 0.0 0.0 0.0 34.24959146834617" Properties=species:S:1:pos:R:3:initial_magmoms:R:1 pbc="T T T"
Si       1.15551486       1.37326329      -1.45937591       0.00000000
Si      -1.94808852       1.18071549       0.53713664       0.00000000
Si       1.08266598       0.48213513       2.05025019       0.00000000
Si      -0.16029360      -2.20530762      -0.97450417       0.00000000
Si      -0.39456009      -0.94938120       3.22038814       0.00000000
Si      -0.54744174      -1.35316143      -3.09962401       0.00000000
Si      -2.52698625      -0.14317281       2.40117170       0.00000000
Si       0.81920781       0.40109238      -3.56452822       0.00000000
Si       0.45976896       3.59432334      -1.03067353       0.00000000
Si      -1.24851447       3.48399117       0.71156991       0.00000000
