10
Lattice="16.28999089631971 0.0 0.0 0.0 16.28999089631971 0.0 0.0 0.0 34.24959146834617" Properties=species:S:1:pos:R:3:initial_magmoms:R:1 pbc="T T T"
Si      -1.35720135      -1.35874890      -1.35601058       0.00000000
Si       1.35741312      -1.35767376       1.35782581       0.00000000
Si      -1.35765747       1.35715942       1.35820256       0.00000000
Si       1.35832536       1.35940477      -1.35628458       0.00000000
Si      -2.71417464       0.00172674       2.71500088       0.00000000
Si      -0.00162900       2.71289166      -2.71691886       0.00000000
Si       2.71542897       2.71444898       0.00027400       0.00000000
Si      -2.71510317       2.71491162       0.00071924       0.00000000
Si       2.71538010      -2.71492398       0.00065074       0.00000000
Si      -0.00016290       2.71591020       2.71462414       0.00000000
