10
Lattice="16.28999089631971 0.0 0.0 0.0 16.28999089631971 0.0 0.0 0.0 34.24959146834617" Properties=species:S:1:pos:R:3:initial_magmoms:R:1 pbc="T T T"
Si       1.36194174       1.34770517      -1.38488300       0.00000000
Si      -1.35076680      -1.36616085      -1.38587624       0.00000000
Si       1.36990755      -1.37715660       1.38728048       0.00000000
Si      -1.44034551       1.41149480       1.53393731       0.00000000
Si      -2.70405855       2.70618832      -0.01986477       0.00000000
Si      -2.69966025      -2.72376945      -0.00928164       0.00000000
Si       2.71322982       2.71539054      -0.00246597       0.00000000
Si       0.00845451       2.70478413      -2.74918199       0.00000000
Si      -2.70555723      -0.00939933      -2.74880525       0.00000000
Si       2.71430496      -2.74374099      -0.01959078       0.00000000
