10
Lattice="16.28999089631971 0.0 0.0 0.0 16.28999089631971 0.0 0.0 0.0 34.24959146834617" Properties=species:S:1:pos:R:3:initial_magmoms:R:1 pbc="T T T"
Si      -0.68448951       2.24913165      -0.30660251       0.00000000
Si      -2.13188859      -0.66735243      -0.89459983       0.00000000
Si       2.18403288      -0.27471456      -1.03666721       0.00000000
Si       0.15490161      -1.14963417       2.18694039       0.00000000
Si       2.65825107      -2.29076496       0.03229738       0.00000000
Si      -3.33301545      -0.53841708       1.13270312       0.00000000
Si       0.89608032       3.41390249       0.98755327       0.00000000
Si       2.50426170      -1.54562778       2.33476171       0.00000000
Si       0.79451217      -3.70724562      -0.50189379       0.00000000
Si      -0.30804390      -3.42127467       1.78553495       0.00000000
