10
Lattice="16.28999089631971 0.0 0.0 0.0 16.28999089631971 0.0 0.0 0.0 34.24959146834617" Properties=species:S:1:pos:R:3:initial_magmoms:R:1 pbc="T T T"
Si      -2.01258063       1.22135904       0.04627122       0.00000000
Si       0.31369653      -0.30604023       2.33274098       0.00000000
Si       1.65403773       1.38220650      -1.02584434       0.00000000
Si      -0.22260285      -2.22048990      -0.88586618       0.00000000
Si      -2.55378330       0.78136614      -2.22454646       0.00000000
Si      -1.72286298      -1.22999274       2.94399378       0.00000000
Si      -3.23312517       0.12924486       1.82194229       0.00000000
Si       3.54698460       1.20094767       0.48877619       0.00000000
Si       1.92020004      -3.17281959      -1.03851669       0.00000000
Si       2.01359061      -1.90563678       2.75781290       0.00000000
