10
Lattice="16.28999089631971 0.0 0.0 0.0 16.28999089631971 0.0 0.0 0.0 34.24959146834617" Properties=species:S:1:pos:R:3:initial_magmoms:R:1 pbc="T T T"
Si       2.01258063      -1.22135904      -0.04627122       0.00000000
Si      -0.54120267      -0.43999290      -2.27081768       0.00000000
Si       0.08952984       2.33068753       0.46178750       0.00000000
Si      -1.22054454      -1.09211418       1.77567106       0.00000000
Si       2.32627716      -1.52739927       2.28646975       0.00000000
Si      -3.29947434       1.43742960      -0.67732030       0.00000000
Si      -2.14602831       1.24436052      -2.73469441       0.00000000
Si      -2.17119636       2.88831541       0.95460515       0.00000000
Si       0.53729307       3.37444811      -1.65014624       0.00000000
Si       0.28971765      -2.45135178       2.89772256       0.00000000
