10
Lattice="16.28999089631971 0.0 0.0 0.0 16.28999089631971 0.0 0.0 0.0 34.24959146834617" Properties=species:S:1:pos:R:3:initial_magmoms:R:1 pbc="T T T"
Si       1.35687555      -1.35724887      -1.35710657       0.00000000
Si      -1.35749457       1.35742817      -1.35768881       0.00000000
Si      -1.35772263      -1.35759096       1.35758607       0.00000000
Si       1.35845568       1.35806022       1.35803131       0.00000000
Si       2.71317745       0.00058464      -2.71400764       0.00000000
Si       0.00092853      -2.71536246      -2.71321990       0.00000000
Si      -2.71459818       0.00238396      -2.71424739       0.00000000
Si       0.00144981       2.71553524      -2.71383640       0.00000000
Si       2.71498918      -2.71475973      -0.00010275       0.00000000
Si       2.71496831       2.71517686      -0.00006850       0.00000000
