10
Lattice="16.28999089631971 0.0 0.0 0.0 16.28999089631971 0.0 0.0 0.0 34.24959146834617" Properties=species:S:1:pos:R:3:initial_magmoms:R:1 pbc="T T T"
Si      -1.33788141      -1.35569989       1.34416022       0.00000000
Si       1.35302526      -1.35183916      -1.35823681       0.00000000
Si      -1.35897696       1.36281834      -1.35655858       0.00000000
Si       1.36057242       1.37080858       1.38193754       0.00000000
Si      -2.60884350       0.07108503       2.67701806       0.00000000
Si       2.71374200      -2.70739522       0.00472645       0.00000000
Si      -0.00244346      -2.71000162      -2.71469264       0.00000000
Si       2.71263428       0.00440564      -2.71476114       0.00000000
Si      -2.71746522      -2.71027855       0.00414420       0.00000000
Si       2.70885500       2.72097754       0.00352771       0.00000000
