10
Lattice="16.28999089631971 0.0 0.0 0.0 16.28999089631971 0.0 0.0 0.0 34.24959146834617" Properties=species:S:1:pos:R:3:initial_magmoms:R:1 pbc="T T T"
Si       2.25627903       0.54895671      -0.42082497       0.00000000
Si      -0.65840922       2.26934361       0.11103724       0.00000000
Si      -0.90503982      -0.56306385      -2.28383253       0.00000000
Si      -0.92460411      -2.27886186       1.82875796       0.00000000
Si       0.27621324       1.18130193       2.81456450       0.00000000
Si       0.88172883      -1.09406898       2.87268609       0.00000000
Si      -2.99525859      -0.74091807      -1.20038035       0.00000000
Si      -3.04091946      -1.25706672       1.21712841       0.00000000
Si       2.02453749       2.57391774      -1.60185429       0.00000000
Si      -0.17013276      -3.67380944       0.02832443       0.00000000
