10
Lattice="16.28999089631971 0.0 0.0 0.0 16.28999089631971 0.0 0.0 0.0 34.24959146834617" Properties=species:S:1:pos:R:3:initial_magmoms:R:1 pbc="T T T"
Si      -0.27347652      -1.12428693       1.97723002       0.00000000
Si       0.00721647       2.40875343       0.48839945       0.00000000
Si       2.40947019      -0.81971280       0.26433849       0.00000000
Si      -2.27719539      -0.88648551      -1.20175034       0.00000000
Si       1.30266243       0.30709908       3.08088947       0.00000000
Si      -3.17345490       1.43604495      -0.36979305       0.00000000
Si       1.25579610       0.41057316      -3.26453588       0.00000000
Si      -1.60003638       2.96878734      -1.07728725       0.00000000
Si       2.98942500      -0.57984255      -1.96236569       0.00000000
Si      -2.55420684      -0.97423974       2.51549690       0.00000000
