10
Lattice="16.28999089631971 0.0 0.0 0.0 16.28999089631971 0.0 0.0 0.0 34.24959146834617" Properties=species:S:1:pos:R:3:initial_magmoms:R:1 pbc="T T T"
Si      -1.37884980       1.39233888       1.27747623       0.00000000
Si      -1.35870525      -1.33314102      -1.36697046       0.00000000
Si       1.35659047       1.37945349      -1.36638822       0.00000000
Si       1.32697525      -1.33978734       1.54534243       0.00000000
Si       0.33747178       2.21833962       2.65263234       0.00000000
Si       2.17934950       0.65348964       2.82189392       0.00000000
Si       2.70763421      -2.68428249       0.02281024       0.00000000
Si      -2.74124766      -2.67600717       0.00893915       0.00000000
Si      -0.00133578      -2.69187363      -2.72681700       0.00000000
Si       2.71292845       0.02223585      -2.72568676       0.00000000
