10
Lattice="16.28999089631971 0.0 0.0 0.0 16.28999089631971 0.0 0.0 0.0 34.24959146834617" Properties=species:S:1:pos:R:3:initial_magmoms:R:1 pbc="T T T"
Si       1.34346888      -1.37634210       1.28442890       0.00000000
Si       1.36104579       1.32783048      -1.36241526       0.00000000
Si      -1.35107631      -1.39132890      -1.35775731       0.00000000
Si      -1.37080350       1.32955722       1.47646646       0.00000000
Si      -0.30988467      -2.30106024       2.70037630       0.00000000
Si      -2.22092973      -0.44222463       2.81021480       0.00000000
Si       2.70813335       2.67100614       0.01784405       0.00000000
Si      -2.71904535       2.66641236       0.00986389       0.00000000
Si       0.00615762       2.68346799      -2.71907659       0.00000000
Si      -2.71130760      -0.03028311      -2.71825460       0.00000000
