10
Lattice="16.28999089631971 0.0 0.0 0.0 16.28999089631971 0.0 0.0 0.0 34.24959146834617" Properties=species:S:1:pos:R:3:initial_magmoms:R:1 pbc="T T T"
Si      -0.85012623      -1.77178185       1.33374834       0.00000000
Si      -1.34824185       1.33685514      -1.46660258       0.00000000
Si       1.37080350      -1.32955722      -1.47646646       0.00000000
Si       0.85765221       2.05175808       1.19075621       0.00000000
Si      -2.62788651      -2.75175567      -0.07195843       0.00000000
Si      -2.69263926       2.70343953      -0.05973132       0.00000000
Si       2.71427238      -2.70589932      -0.19203757       0.00000000
Si       2.73238686       2.72934063      -0.08168532       0.00000000
Si      -2.69467551      -0.00480555      -2.83850498       0.00000000
Si       0.01896156       2.71145421      -2.83412103       0.00000000
