10
Lattice="16.28999089631971 0.0 0.0 0.0 16.28999089631971 0.0 0.0 0.0 34.24959146834617" Properties=species:S:1:pos:R:3:initial_magmoms:R:1 pbc="T T T"
Si       1.00543509       1.73507317      -1.15236240       0.00000000
Si      -0.63939879       0.66789000       2.13892243       0.00000000
Si      -1.81478745      -1.05430509      -1.05084655       0.00000000
Si       1.73550402      -1.70598654       0.19964098       0.00000000
Si       2.27639718       0.30828825      -2.48522024       0.00000000
Si      -0.47039004      -2.42088948      -2.45771781       0.00000000
Si      -0.16518060      -1.34816040       3.20788703       0.00000000
Si       2.10468429       2.91403732       0.55518619       0.00000000
Si       2.16016803      -1.78839765       2.51559965       0.00000000
Si       0.83668698       2.28657910       2.95214519       0.00000000
