10
Lattice="16.28999089631971 0.0 0.0 0.0 16.28999089631971 0.0 0.0 0.0 34.24959146834617" Properties=species:S:1:pos:R:3:initial_magmoms:R:1 pbc="T T T"
Si       1.48757022       1.02817593       1.53443876       0.00000000
Si      -1.12453128      -1.71782937       1.35739910       0.00000000
Si      -1.84896387       1.67407443      -0.18844136       0.00000000
Si       1.34328969      -0.61665795      -2.07364267       0.00000000
Si      -1.72195074       1.49674149      -2.69804733       0.00000000
Si       0.61320447       1.31647635      -3.36831220       0.00000000
Si       0.11663640       2.42633510       2.88555508       0.00000000
Si       3.27032406       1.94931027       0.26003678       0.00000000
Si      -2.60048673      -0.31579794       2.86473131       0.00000000
Si       2.82958135      -0.31113900       2.90524175       0.00000000
