10
Lattice="16.28999089631971 0.0 0.0 0.0 16.28999089631971 0.0 0.0 0.0 34.24959146834617" Properties=species:S:1:pos:R:3:initial_magmoms:R:1 pbc="T T T"
Si      -1.13528824       1.70737119       1.09269958       0.00000000
Si      -0.40696655      -2.14698942       0.80243413       0.00000000
Si      -1.36258261      -0.23825754      -1.87537168       0.00000000
Si       2.37602845      -0.05313798      -0.37195077       0.00000000
Si       0.01067484      -1.92709071      -2.72986521       0.00000000
Si       1.47874267      -1.96069698       2.28277080       0.00000000
Si       0.75481507       3.05800767       1.38416376       0.00000000
Si       2.18734138      -0.96449832      -2.59858646       0.00000000
Si      -2.73713281      -1.88128323       1.41813938       0.00000000
Si      -3.34264840       0.39408768       1.36001779       0.00000000
