10
Lattice="16.28999089631971 0.0 0.0 0.0 16.28999089631971 0.0 0.0 0.0 34.24959146834617" Properties=species:S:1:pos:R:3:initial_magmoms:R:1 pbc="T T T"
Si       1.43941209       0.11500740      -1.88013237       0.00000000
Si       0.54609293      -0.98186346       2.08754802       0.00000000
Si      -1.40075659       1.66970871       0.99964338       0.00000000
Si      -0.19663415      -2.62612719      -0.53717089       0.00000000
Si      -1.93026304      -1.63571148      -1.83934109       0.00000000
Si      -0.27690949      -0.71099334      -3.25528849       0.00000000
Si      -0.77658895      -2.86599744       1.68953329       0.00000000
Si       0.04223834       2.25994428       2.74466105       0.00000000
Si      -3.17884267       0.36246879       1.91359424       0.00000000
Si       2.75535087      -1.66827519       2.11549570       0.00000000
