10
Lattice="16.28999089631971 0.0 0.0 0.0 16.28999089631971 0.0 0.0 0.0 34.24959146834617" Properties=species:S:1:pos:R:3:initial_magmoms:R:1 pbc="T T T"
Si       1.98267219      -0.24485499       1.24401436       0.00000000
Si      -1.73726334       0.87263901       1.39550038       0.00000000
Si       0.10059075       2.05630299      -1.24822706       0.00000000
Si      -0.28452114      -2.38676193      -0.65320857       0.00000000
Si      -3.07131986      -0.94576482       1.00296560       0.00000000
Si       3.39509664      -0.46602432      -0.61228029       0.00000000
Si      -1.91114280      -2.91452535       1.04375688       0.00000000
Si       2.37260592       1.86883767       2.24502773       0.00000000
Si      -1.28598147       1.69339437      -3.12551672       0.00000000
Si      -0.85708206       3.81445011       0.02630370       0.00000000
