10
Lattice="16.28999089631971 0.0 0.0 0.0 16.28999089631971 0.0 0.0 0.0 34.24959146834617" Properties=species:S:1:pos:R:3:initial_magmoms:R:1 pbc="T T T"
Si       0.94016595       1.76116633       1.23612462       0.00000000
Si      -1.78275384      -0.92113434       1.27440198       0.00000000
Si       1.78808651      -1.78241922      -0.24095975       0.00000000
Si      -0.44074271      -2.26044927       2.64520497       0.00000000
Si       2.29102397       0.46677366       2.64320479       0.00000000
Si      -3.27032406      -1.94931027      -0.26003678       0.00000000
Si       0.61751643      -2.95520148      -2.33816616       0.00000000
Si       0.86960093      -3.58015104       1.17881132       0.00000000
Si       3.56359877      -0.92851371       1.21928066       0.00000000
Si       1.94205959       3.39171551      -0.21811526       0.00000000
