10
Lattice="16.28999089631971 0.0 0.0 0.0 16.28999089631971 0.0 0.0 0.0 34.24959146834617" Properties=species:S:1:pos:R:3:initial_magmoms:R:1 pbc="T T T"
Si      -1.35085802       1.29439267      -1.40708018       0.00000000
Si       1.34201907       1.35940443       1.35718534       0.00000000
Si      -1.37349461      -1.35418770       1.35626061       0.00000000
Si       1.27257480      -1.39528737      -1.42392414       0.00000000
Si      -2.29102397      -0.46677366      -2.64320479       0.00000000
Si      -0.50293746      -2.24919288      -2.88416454       0.00000000
Si       2.68802919      -2.72577312      -0.02331371       0.00000000
Si       2.68022628       2.73473981      -0.02028947       0.00000000
Si       2.69808012       0.00307592       2.71867587       0.00000000
Si      -0.01542663      -2.71375110       2.71744288       0.00000000
