10
Lattice="16.28999089631971 0.0 0.0 0.0 16.28999089631971 0.0 0.0 0.0 34.24959146834617" Properties=species:S:1:pos:R:3:initial_magmoms:R:1 pbc="T T T"
Si      -1.27257480       1.39528737       1.42392414       0.00000000
Si       1.74229695       1.14241770      -1.13964826       0.00000000
Si       1.41545439      -1.33048575       1.40061043       0.00000000
Si      -1.77551226      -0.85390551      -1.46024041       0.00000000
Si       0.78167565       1.60787417      -3.21793042       0.00000000
Si      -2.62343282       2.68968004       0.01684396       0.00000000
Si      -2.69399785      -2.65163733      -0.04046934       0.00000000
Si       2.74572837      -2.62638783      -0.14629036       0.00000000
Si      -2.64606941       0.04109967       2.78018474       0.00000000
Si       0.07012845      -2.67341706       2.78477419       0.00000000
