10
Lattice="16.28999089631971 0.0 0.0 0.0 16.28999089631971 0.0 0.0 0.0 34.24959146834617" Properties=species:S:1:pos:R:3:initial_magmoms:R:1 pbc="T T T"
Si      -1.34201113       1.33931493      -1.37080299       0.00000000
Si      -1.35787759      -1.34175843       1.36111035       0.00000000
Si       1.35827207       1.37303523       1.35426043       0.00000000
Si       1.31034363      -1.31970177      -1.46639365       0.00000000
Si       0.44074271       2.26044927      -2.64520497       0.00000000
Si       2.22882922       0.47803005      -2.88616472       0.00000000
Si       2.70684298      -2.68222995      -0.01211751       0.00000000
Si      -2.69865862      -2.69395875      -0.01191201       0.00000000
Si       0.00049274      -2.69871543       2.71643594       0.00000000
Si      -2.71271689       0.01431891       2.71736068       0.00000000
