10
Lattice="16.28999089631971 0.0 0.0 0.0 16.28999089631971 0.0 0.0 0.0 34.24959146834617" Properties=species:S:1:pos:R:3:initial_magmoms:R:1 pbc="T T T"
Si      -1.19946202      -1.24359489      -1.57293533       0.00000000
Si      -1.31034363       1.31970177       1.46639365       0.00000000
Si       1.39649935      -1.36252818       1.45427614       0.00000000
Si       0.91848559       1.79773182      -1.41977107       0.00000000
Si      -0.25208449       0.62494956      -3.51697747       0.00000000
Si       0.53980825      -2.10689973      -2.90216271       0.00000000
Si      -2.57751850      -2.61244359       0.00519909       0.00000000
Si      -2.65235476       2.65901670       0.09559066       0.00000000
Si       2.69399785       2.65163733       0.04046934       0.00000000
Si      -0.86960093       3.58015104      -1.17881132       0.00000000
