10
Lattice="16.28999089631971 0.0 0.0 0.0 16.28999089631971 0.0 0.0 0.0 34.24959146834617" Properties=species:S:1:pos:R:3:initial_magmoms:R:1 pbc="T T T"
Si       1.34828257       1.35016896      -1.37840983       0.00000000
Si      -1.36057242      -1.37080858      -1.38193754       0.00000000
Si       1.60219480      -1.22762043       1.34792768       0.00000000
Si      -1.51110831       1.31190375       1.38659549       0.00000000
Si       0.11564760      -2.57906768       2.53899213       0.00000000
Si       2.70375719       2.71492887       0.00962414       0.00000000
Si      -2.69845383      -2.72650847      -0.03777732       0.00000000
Si      -0.00521280       2.70733773      -2.74000310       0.00000000
Si       2.70918175      -0.00915661      -2.73897561       0.00000000
Si      -2.71954938      -0.00799024      -2.73849612       0.00000000
