10
Lattice="16.28999089631971 0.0 0.0 0.0 16.28999089631971 0.0 0.0 0.0 34.281931910070035" Properties=species:S:1:pos:R:3:initial_magmoms:R:1 pbc="T T T"
Si       1.27283544      -1.36554413       1.51146037       0.00000000
Si      -0.89647128      -1.88698703      -1.23587260       0.00000000
Si       1.30710960       1.45593993      -1.47245235       0.00000000
Si      -1.44001971       1.34265927       1.48740130       0.00000000
Si       2.57978214      -2.76654929       0.11928748       0.00000000
Si       2.69612532       2.70686532       0.06210861       0.00000000
Si      -2.75040360      -2.70575501       0.05064130       0.00000000
Si       2.93169501       0.08236876      -2.55298516       0.00000000
Si       2.62513350      -0.01958058       2.88469591       0.00000000
Si      -2.65847913       2.88879204       0.06680181       0.00000000
