10
Lattice="16.28999089631971 0.0 0.0 0.0 16.28999089631971 0.0 0.0 0.0 34.281931910070035" Properties=species:S:1:pos:R:3:initial_magmoms:R:1 pbc="T T T"
Si       1.35210258      -1.35774870      -1.35828518       0.00000000
Si       1.35540945       1.35788619       1.35759954       0.00000000
Si      -1.35896067      -1.35763467       1.35708532       0.00000000
Si      -1.35904212       1.35813054      -1.36154197       0.00000000
Si      -0.01078398      -2.69944197      -2.70741709       0.00000000
Si       2.71308321      -0.00016910       2.71441060       0.00000000
Si       2.71458189      -2.71353282      -0.00068564       0.00000000
Si      -0.00158013       2.71482365       2.71471914       0.00000000
Si       2.71511946       2.71448156       0.00143984       0.00000000
Si      -0.00154755      -2.71525956       2.71454773       0.00000000
