10
Lattice="16.28999089631971 0.0 0.0 0.0 16.28999089631971 0.0 0.0 0.0 34.281931910070035" Properties=species:S:1:pos:R:3:initial_magmoms:R:1 pbc="T T T"
Si      -1.39949019       0.86272329      -1.62743278       0.00000000
Si      -0.22849983       1.91181884       1.36952966       0.00000000
Si      -1.28252799      -1.63149141       1.15046800       0.00000000
Si       2.16816642      -0.70291254      -0.75032906       0.00000000
Si       1.78763202       1.63132133       2.56919226       0.00000000
Si      -3.04629516      -1.97793084      -0.45978953       0.00000000
Si      -2.41152273      -1.01097273      -2.57728280       0.00000000
Si       3.27705930       1.39542584      -1.09294288       0.00000000
Si       2.97000909      -2.00660124       1.06061500       0.00000000
Si      -3.34177947       1.68248821      -0.39609366       0.00000000
