10
Lattice="16.28999089631971 0.0 0.0 0.0 16.28999089631971 0.0 0.0 0.0 34.281931910070035" Properties=species:S:1:pos:R:3:initial_magmoms:R:1 pbc="T T T"
Si       1.30481271       1.07654094      -1.59894448       0.00000000
Si      -2.01613185       0.28049751      -1.19966260       0.00000000
Si       0.17018163       1.13546187       2.09651272       0.00000000
Si       0.80894511      -2.23105301       0.36081753       0.00000000
Si      -1.78763202      -1.63132133      -2.56919226       0.00000000
Si       3.37765005       1.07790930      -0.28954536       0.00000000
Si      -0.10472841       3.04272765      -1.86305263       0.00000000
Si      -1.79756892       0.36825174       3.08013046       0.00000000
Si       3.11065695      -2.05822228       0.88608559       0.00000000
Si      -3.87980559      -0.05483214       0.15282894       0.00000000
