10
Lattice="16.28999089631971 0.0 0.0 0.0 16.28999089631971 0.0 0.0 0.0 34.281931910070035" Properties=species:S:1:pos:R:3:initial_magmoms:R:1 pbc="T T T"
Si      -0.40752693      -1.47966957      -1.69767650       0.00000000
Si       1.67470974      -1.05658569       1.22962502       0.00000000
Si       0.64498626       2.07010062      -0.97175618       0.00000000
Si      -1.97136693       0.22822290       1.31334155       0.00000000
Si      -0.17405865       3.24969210       0.85787154       0.00000000
Si       1.03721688       0.01379763       3.23117673       0.00000000
Si      -2.19154257      -0.45976896      -2.72507229       0.00000000
Si       1.45614681      -1.14433992      -3.05016803       0.00000000
Si       1.12252761       2.27543607       2.53737861       0.00000000
Si       1.23501006      -3.33481387       0.71964672       0.00000000
