10
Lattice="16.28999089631971 0.0 0.0 0.0 16.28999089631971 0.0 0.0 0.0 34.281931910070035" Properties=species:S:1:pos:R:3:initial_magmoms:R:1 pbc="T T T"
Si      -1.35570267      -1.35606105       1.35543978       0.00000000
Si       1.35764118      -1.35767376      -1.35763383       0.00000000
Si      -1.35786924       1.35755973      -1.35770239       0.00000000
Si       1.35878148       1.35814617       1.35890226       0.00000000
Si       2.71467963      -2.71438641       0.00020569       0.00000000
Si      -2.71485882      -2.71446786      -0.00006856       0.00000000
Si      -2.71479366       2.71485882       0.00003428       0.00000000
Si       2.71580364       0.00068418      -2.71389637       0.00000000
Si      -2.71466334       0.00162900      -2.71506196       0.00000000
Si       0.00037467      -2.71366965       2.71619327       0.00000000
