10
Lattice="16.28999089631971 0.0 0.0 0.0 16.28999089631971 0.0 0.0 0.0 34.281931910070035" Properties=species:S:1:pos:R:3:initial_magmoms:R:1 pbc="T T T"
Si       0.87807987      -1.99945089      -0.90212954       0.00000000
Si       0.43971597      -0.24702156       2.34817652       0.00000000
Si       0.95017941       2.17564353      -0.46887424       0.00000000
Si      -2.23725231      -0.28393470      -0.94841018       0.00000000
Si      -0.40164624      -3.39575150       0.54830553       0.00000000
Si      -3.70323828      -1.03669560       0.70679099       0.00000000
Si      -2.34393552      -2.57598657       1.77964464       0.00000000
Si      -1.02636774       1.24870995       3.56288889       0.00000000
Si      -0.08599491       3.17767401      -2.32980139       0.00000000
Si      -2.01727215      -1.80273285      -2.88825438       0.00000000
