10
Lattice="16.28999089631971 0.0 0.0 0.0 16.28999089631971 0.0 0.0 0.0 34.281931910070035" Properties=species:S:1:pos:R:3:initial_magmoms:R:1 pbc="T T T"
Si      -1.03617432       1.00203048      -1.86092715       0.00000000
Si      -0.25293483       1.65604140       1.69959629       0.00000000
Si      -0.95017941      -2.17564353       0.46887424       0.00000000
Si       2.41725681      -0.18318105      -0.26859909       0.00000000
Si       2.87919234      -0.13838355       2.06847008       0.00000000
Si      -0.12527010      -0.41818059      -3.54958750       0.00000000
Si      -0.51046344      -2.42266509       2.81705077       0.00000000
Si       1.85974785       1.93735341       2.66504459       0.00000000
Si      -1.06375329       3.62874411       0.69304392       0.00000000
Si       2.90971980      -2.20688775      -1.54152221       0.00000000
