10
Lattice="16.28999089631971 0.0 0.0 0.0 16.28999089631971 0.0 0.0 0.0 34.281931910070035" Properties=species:S:1:pos:R:3:initial_magmoms:R:1 pbc="T T T"
Si       2.24103159       0.66259575       0.53370141       0.00000000
Si      -0.43971597       0.24702156      -2.34817652       0.00000000
Si      -1.46608371       1.49573151       1.21471237       0.00000000
Si       0.32962815      -2.09963439       1.19709145       0.00000000
Si      -0.48153240       1.11480615       3.27550330       0.00000000
Si       1.69222149       1.75220127       2.57783131       0.00000000
Si      -2.78365149      -2.32896501      -0.56853188       0.00000000
Si       0.43836390      -1.75242933      -3.25030606       0.00000000
Si      -0.84136221      -3.14872994      -1.79987100       0.00000000
Si       0.51046344       2.42266509      -2.81705077       0.00000000
