10
Lattice="16.28999089631971 0.0 0.0 0.0 16.28999089631971 0.0 0.0 0.0 34.281931910070035" Properties=species:S:1:pos:R:3:initial_magmoms:R:1 pbc="T T T"
Si      -1.35568638       1.35910728       1.36353032       0.00000000
Si       1.35990549      -1.35769005       1.36462734       0.00000000
Si       1.38323277       1.35166275      -1.36942339       0.00000000
Si      -1.35496962      -1.36405944      -1.38780194       0.00000000
Si       0.01063737       2.75978664      -2.63031698       0.00000000
Si      -2.71218726       2.71466334       0.00425096       0.00000000
Si      -2.71406061      -2.71340901       0.00455950       0.00000000
Si       2.71349046      -2.71656927       0.00215976       0.00000000
Si       2.71811682       2.71272483       0.00603362       0.00000000
Si      -2.71376739      -0.00081450       2.72082133       0.00000000
