10
Lattice="16.28999089631971 0.0 0.0 0.0 16.28999089631971 0.0 0.0 0.0 34.281931910070035" Properties=species:S:1:pos:R:3:initial_magmoms:R:1 pbc="T T T"
Si      -0.83839743      -1.68375069       1.36539320       0.00000000
Si      -0.10347408      -1.30499190      -1.96819884       0.00000000
Si       1.82099394       0.95322564       1.24230043       0.00000000
Si      -1.65525948       1.83278790      -0.11285965       0.00000000
Si      -2.21374584      -0.35618085       2.65206339       0.00000000
Si       0.51404724       2.35423080       2.63447332       0.00000000
Si      -2.07560664      -0.20300598      -2.91979724       0.00000000
Si      -2.55223575      -2.76001470       0.14880869       0.00000000
Si       1.94085576      -0.55874700      -3.20186913       0.00000000
Si      -3.50919180       1.01401992       1.17365425       0.00000000
