10
Lattice="16.28999089631971 0.0 0.0 0.0 16.28999089631971 0.0 0.0 0.0 34.281931910070035" Properties=species:S:1:pos:R:3:initial_magmoms:R:1 pbc="T T T"
Si       0.33875055      -0.65695941       2.22572139       0.00000000
Si       0.90191214       2.16209025      -0.33538033       0.00000000
Si       0.70951095      -1.57903857      -1.61653112       0.00000000
Si      -2.30014800       0.44294139      -0.42968997       0.00000000
Si      -1.53883485       0.43883631       2.96151491       0.00000000
Si       0.01560582      -0.28142604      -3.44101656       0.00000000
Si      -3.18283794      -0.67393359       1.45173778       0.00000000
Si      -2.22552351      -0.00936675      -2.78633414       0.00000000
Si       3.17145123       1.71302382      -0.84936962       0.00000000
Si       0.44202915      -2.99568213       2.40474174       0.00000000
