10
Lattice="16.28999089631971 0.0 0.0 0.0 16.28999089631971 0.0 0.0 0.0 34.281931910070035" Properties=species:S:1:pos:R:3:initial_magmoms:R:1 pbc="T T T"
Si      -1.35265644      -1.34160042       1.37494964       0.00000000
Si       1.36865322       1.37520180       1.36727048       0.00000000
Si      -1.28166462       1.38484548      -1.44763766       0.00000000
Si       1.24636419      -1.50265476      -1.38358526       0.00000000
Si       2.01608298       0.34389819      -2.55687064       0.00000000
Si       0.55482111       2.23021503      -2.76851922       0.00000000
Si      -2.70495450      -2.68756397       0.00171410       0.00000000
Si       2.71946889      -2.70175125      -0.00570452       0.00000000
Si       0.00635310      -2.69706436       2.72781827       0.00000000
Si      -2.70684414       0.01594791       2.72816109       0.00000000
