10
Lattice="16.28999089631971 0.0 0.0 0.0 16.28999089631971 0.0 0.0 0.0 34.281931910070035" Properties=species:S:1:pos:R:3:initial_magmoms:R:1 pbc="T T T"
Si      -1.65035619      -0.95687038       1.35238869       0.00000000
Si      -1.55971863       1.15002676      -1.32414036       0.00000000
Si       1.17867924      -1.58421457      -1.30542241       0.00000000
Si       0.84447360       1.59341775       1.66973671       0.00000000
Si       2.48170005       2.53919886       0.14346997       0.00000000
Si      -0.34821504      -2.45882467       2.54762891       0.00000000
Si      -0.20706219       2.50241604      -2.68979616       0.00000000
Si       2.51760321      -0.21694991      -2.68965903       0.00000000
Si      -2.81525409       2.56387821       0.17120406       0.00000000
Si      -0.83662182       3.41736018       1.54357913       0.00000000
