10
Lattice="16.28999089631971 0.0 0.0 0.0 16.28999089631971 0.0 0.0 0.0 34.281931910070035" Properties=species:S:1:pos:R:3:initial_magmoms:R:1 pbc="T T T"
Si       1.77873768       0.92476701       1.21502091       0.00000000
Si      -1.32369282       1.34167698      -1.45406895       0.00000000
Si      -1.63722645      -0.94578111       1.52626674       0.00000000
Si       1.38184812      -1.40522101      -1.43799072       0.00000000
Si      -2.48170005      -2.53919886      -0.14346997       0.00000000
Si      -3.31832187       0.87816132       1.40010916       0.00000000
Si       2.73155607       2.58791085      -0.14192728       0.00000000
Si      -2.61268794       2.75890698       0.06582135       0.00000000
Si       2.74703157      -2.70685033       0.23274017       0.00000000
Si       0.03002247       2.67467139      -2.83391749       0.00000000
