10
Lattice="16.28999089631971 0.0 0.0 0.0 16.28999089631971 0.0 0.0 0.0 34.281931910070035" Properties=species:S:1:pos:R:3:initial_magmoms:R:1 pbc="T T T"
Si       0.35362332       2.27779812       0.26184554       0.00000000
Si       1.44779004      -1.30420998      -1.33387643       0.00000000
Si       0.15892524      -1.06968285       2.15897443       0.00000000
Si      -2.07283734      -0.00136836      -1.30939912       0.00000000
Si      -0.26699310      -3.13613158       1.17563095       0.00000000
Si      -3.37765005      -1.07790930       0.28954536       0.00000000
Si      -0.18533133       3.25361799      -1.87940512       0.00000000
Si       0.48715245      -1.39137777      -3.46412259       0.00000000
Si      -0.50130846       2.79658575       2.49840003       0.00000000
Si       1.35024552      -3.53985677      -0.55811016       0.00000000
