10
Lattice="16.28999089631971 0.0 0.0 0.0 16.28999089631971 0.0 0.0 0.0 34.281931910070035" Properties=species:S:1:pos:R:3:initial_magmoms:R:1 pbc="T T T"
Si       1.83567123       0.69460560      -1.46058253       0.00000000
Si      -1.90045656       1.63287702       0.01220437       0.00000000
Si       1.27058742       0.60592284       2.08955348       0.00000000
Si      -0.81940329      -2.07119205      -1.33315651       0.00000000
Si       0.46281519       1.94673645      -2.86819944       0.00000000
Si      -0.84857868       3.33361818      -1.32647153       0.00000000
Si      -2.25693063      -0.80189154      -2.84355071       0.00000000
Si      -3.62444355       0.61012566      -1.37343781       0.00000000
Si       3.40213392       2.00401209      -0.01426129       0.00000000
Si      -3.45222567      -1.07896815       1.65239004       0.00000000
