10
Lattice="16.28999089631971 0.0 0.0 0.0 16.28999089631971 0.0 0.0 0.0 34.281931910070035" Properties=species:S:1:pos:R:3:initial_magmoms:R:1 pbc="T T T"
Si       0.45988299       2.14265628       0.84217041       0.00000000
Si      -2.14842294       0.33288615      -0.97638425       0.00000000
Si       0.53895465      -0.97581987       2.14125066       0.00000000
Si       1.70074116      -0.83681730      -1.53171757       0.00000000
Si       2.78363520      -0.32518098       1.90216834       0.00000000
Si      -3.29704713      -1.28879964       0.30589785       0.00000000
Si       2.72398122       1.97837163       1.40744550       0.00000000
Si       0.18533133      -3.25361799       1.87940512       0.00000000
Si       3.53584224      -1.32985044      -0.04504648       0.00000000
Si       2.09233647       1.02007980      -3.00049349       0.00000000
