10
Lattice="16.28999089631971 0.0 0.0 0.0 16.28999089631971 0.0 0.0 0.0 34.281931910070035" Properties=species:S:1:pos:R:3:initial_magmoms:R:1 pbc="T T T"
Si      -0.12790908      -2.14839036       0.86119689       0.00000000
Si      -1.69663608       0.26096580      -1.57741541       0.00000000
Si       2.27325321       0.28483065      -0.65701359       0.00000000
Si      -0.65456478       0.32781996       2.76281672       0.00000000
Si       0.80669709      -1.55849688       2.97446530       0.00000000
Si       1.19037546      -3.34182671      -0.60411654       0.00000000
Si      -3.41228259       1.23952239      -0.22999761       0.00000000
Si       2.63560797       2.70964602      -0.10305154       0.00000000
Si       2.46044160      -0.68204601      -2.87245040       0.00000000
Si       3.67469820      -0.62592696       0.99739908       0.00000000
