10
Lattice="16.28999089631971 0.0 0.0 0.0 16.28999089631971 0.0 0.0 0.0 34.281931910070035" Properties=species:S:1:pos:R:3:initial_magmoms:R:1 pbc="T T T"
Si      -1.50249186      -0.96710472      -1.51305246       0.00000000
Si       1.13953437      -1.47173634       1.47018833       0.00000000
Si       1.28552535       1.36865322      -1.46234946       0.00000000
Si      -1.56273228       1.24629903       1.48159736       0.00000000
Si       2.57149053       2.66872554       0.08776522       0.00000000
Si       2.48645673      -0.10797012       2.85139785       0.00000000
Si       2.50313769      -2.84120406      -0.04819014       0.00000000
Si      -0.29875860      -1.68425568      -3.46465537       0.00000000
Si      -0.22784823       2.60736111       2.85705437       0.00000000
Si      -2.78089848      -2.70954828      -0.06246171       0.00000000
