10
Lattice="16.28999089631971 0.0 0.0 0.0 16.28999089631971 0.0 0.0 0.0 34.281931910070035" Properties=species:S:1:pos:R:3:initial_magmoms:R:1 pbc="T T T"
Si       1.34978940       1.35433431       1.36828866       0.00000000
Si      -1.36611198      -1.36317978       1.36348918       0.00000000
Si       1.49561748      -1.17014328      -1.44216626       0.00000000
Si      -1.42202741       1.30051215      -1.42812437       0.00000000
Si       0.01249443      -2.50141095      -2.66419509       0.00000000
Si       2.70888039       2.70368388      -0.02407279       0.00000000
Si      -2.72212996       2.70016524       0.00483033       0.00000000
Si       2.71407690      -2.71627605      -0.02156678       0.00000000
Si       2.70739800      -0.00617391       2.72640243       0.00000000
Si      -0.00671148       2.71099809       2.72719092       0.00000000
