10
Lattice="16.28999089631971 0.0 0.0 0.0 16.28999089631971 0.0 0.0 0.0 34.281931910070035" Properties=species:S:1:pos:R:3:initial_magmoms:R:1 pbc="T T T"
Si      -1.87758540       1.09579572       0.73579352       0.00000000
Si       2.04162570       0.60856182       0.95670641       0.00000000
Si      -0.33875055       0.65695941      -2.22572139       0.00000000
Si       0.10327860      -2.33872272       0.17902035       0.00000000
Si       3.44220732      -0.52194789      -0.50970405       0.00000000
Si       2.39000364      -2.63326221      -0.26331967       0.00000000
Si      -3.52158849      -0.01697418      -0.77398361       0.00000000
Si      -0.89814915       3.27826476       1.21879192       0.00000000
Si       2.12731110      -0.34782408       3.14560898       0.00000000
Si      -1.22223870      -3.37137840      -1.36850120       0.00000000
