10
Lattice="16.28999089631971 0.0 0.0 0.0 16.28999089631971 0.0 0.0 0.0 34.281931910070035" Properties=species:S:1:pos:R:3:initial_magmoms:R:1 pbc="T T T"
Si       1.49237577       1.03767300      -1.50778333       0.00000000
Si      -1.30694670       1.40100516       1.39217289       0.00000000
Si       1.40348124      -1.33024140       1.38857672       0.00000000
Si      -1.82099394      -0.95322564      -1.24230043       0.00000000
Si       2.64437199       2.58591437       0.00687353       0.00000000
Si      -2.65939137      -2.63697633       0.12309277       0.00000000
Si      -2.57978214       2.76654929      -0.11928748       0.00000000
Si      -3.47625342       0.87956226      -1.35516008       0.00000000
Si      -2.67185322       0.03228678       2.75889486       0.00000000
Si       0.04808808      -2.68403814       2.75944337       0.00000000
