10
Lattice="16.28999089631971 0.0 0.0 0.0 16.28999089631971 0.0 0.0 0.0 34.281931910070035" Properties=species:S:1:pos:R:3:initial_magmoms:R:1 pbc="T T T"
Si      -1.43762508      -1.19619099       1.47895765       0.00000000
Si       1.26286596      -1.38460113      -1.58670582       0.00000000
Si       1.32309009       1.32727662       1.59123104       0.00000000
Si      -1.44068760       1.30789152      -1.59006545       0.00000000
Si      -2.96758188       0.43328142       2.26298587       0.00000000
Si       2.60936478       2.72445463       0.09156709       0.00000000
Si       2.81975013      -2.58282837      -0.14826944       0.00000000
Si      -2.77953012      -2.69496873      -0.06866675       0.00000000
Si      -2.61936684       2.89210609      -0.28464304       0.00000000
Si       2.60552034      -0.03590316      -2.97275939       0.00000000
