10
Lattice="16.28999089631971 0.0 0.0 0.0 16.28999089631971 0.0 0.0 0.0 34.281931910070035" Properties=species:S:1:pos:R:3:initial_magmoms:R:1 pbc="T T T"
Si      -0.32117364      -1.08395289      -2.07354381       0.00000000
Si       0.11883555       2.34263299      -0.38748889       0.00000000
Si      -2.34061236      -0.46858185      -0.28868831       0.00000000
Si       0.34635798      -0.57814839       2.31386029       0.00000000
Si       1.70285886      -2.98269900      -0.43198687       0.00000000
Si      -1.62331479       0.41800140      -3.26878403       0.00000000
Si       2.35496385       2.80622033      -0.41587435       0.00000000
Si      -2.41813647      -2.46907530      -1.72523919       0.00000000
Si      -3.28913019       1.34892833      -1.61334290       0.00000000
Si      -0.48013146      -2.80085373       2.72284396       0.00000000
