10
Lattice="16.28999089631971 0.0 0.0 0.0 16.28999089631971 0.0 0.0 0.0 34.281931910070035" Properties=species:S:1:pos:R:3:initial_magmoms:R:1 pbc="T T T"
Si       2.30171184       0.17283073       0.52526805       0.00000000
Si       0.37343196      -1.40686956      -1.86939479       0.00000000
Si      -1.08787878      -0.94765446       1.91049885       0.00000000
Si      -0.80894511       2.23105301      -0.36081753       0.00000000
Si       2.41222320      -1.41229413       2.17172732       0.00000000
Si      -0.42841071      -0.10318086      -3.68033886       0.00000000
Si      -3.04621371       0.32107657       2.20933462       0.00000000
Si       2.72763018       2.23927946       1.50861154       0.00000000
Si      -0.63876348       3.36651488       1.73569518       0.00000000
Si       0.71521245      -0.86389128       3.70183364       0.00000000
