10
Lattice="16.28999089631971 0.0 0.0 0.0 16.28999089631971 0.0 0.0 0.0 34.281931910070035" Properties=species:S:1:pos:R:3:initial_magmoms:R:1 pbc="T T T"
Si       1.40058162      -1.13050971      -1.46641046       0.00000000
Si       0.56032713       2.20506327       0.52331398       0.00000000
Si      -2.04162570      -0.60856182      -0.95670641       0.00000000
Si       0.08568540      -0.95638590       2.18890258       0.00000000
Si       0.34837794      -3.24182403      -1.22002607       0.00000000
Si      -1.93834710      -2.94728454      -0.77768606       0.00000000
Si      -1.13668362       2.75346612       2.05342031       0.00000000
Si       2.74507677       2.10628071       1.32863130       0.00000000
Si      -0.62815869       0.82556091       3.63172705       0.00000000
Si       3.62134845      -1.03804767      -0.75180319       0.00000000
