10
Lattice="16.28999089631971 0.0 0.0 0.0 16.28999089631971 0.0 0.0 0.0 34.281931910070035" Properties=species:S:1:pos:R:3:initial_magmoms:R:1 pbc="T T T"
Si      -1.47310470       1.19909649      -1.37788075       0.00000000
Si      -1.35685926      -1.35321161       1.37204939       0.00000000
Si       1.36252818       1.36054016       1.37033529       0.00000000
Si       1.28337507      -1.31470205      -1.57360326       0.00000000
Si       2.71538010      -2.70441824      -0.02704160       0.00000000
Si      -2.71946889       2.70175125       0.00570452       0.00000000
Si       2.71270854       2.71447374      -0.01504978       0.00000000
Si      -2.71399545      -2.71705928       0.00382244       0.00000000
Si      -0.00022806      -2.71354064       2.73198010       0.00000000
Si      -2.71311579       0.00468689       2.73352279       0.00000000
