10
Lattice="16.28999089631971 0.0 0.0 0.0 16.28999089631971 0.0 0.0 0.0 34.281931910070035" Properties=species:S:1:pos:R:3:initial_magmoms:R:1 pbc="T T T"
Si      -1.35835743      -1.35539316      -1.35732529       0.00000000
Si      -1.35696520       1.35725022       1.35797665       0.00000000
Si       1.35755321      -1.35726651       1.35797665       0.00000000
Si       1.35774869       1.35883035      -1.35701675       0.00000000
Si      -0.00324334       2.71375110      -2.71081100       0.00000000
Si      -2.71251047      -0.00021177      -2.71526765       0.00000000
Si      -2.71423721       2.71437012       0.00075420       0.00000000
Si      -2.71418834      -0.00034209       2.71451345       0.00000000
Si       0.00188964      -2.71415835       2.71458201       0.00000000
Si       2.71454279       2.71476108       0.00034282       0.00000000
