10
Lattice="16.28999089631971 0.0 0.0 0.0 16.28999089631971 0.0 0.0 0.0 34.281931910070035" Properties=species:S:1:pos:R:3:initial_magmoms:R:1 pbc="T T T"
Si      -1.35744570      -1.35638759      -1.35622827       0.00000000
Si       1.35676152       1.35685274      -1.35732529       0.00000000
Si      -1.35718506       1.35688532       1.35694819       0.00000000
Si       1.35734796      -1.35839629       1.35756526       0.00000000
Si      -2.71645524      -0.00092364      -2.70909690       0.00000000
Si       2.71448415      -0.00068907       2.71447917       0.00000000
Si      -2.71536381       2.71418441       0.00020569       0.00000000
Si       0.00024435      -2.71467704       2.71499340       0.00000000
Si       0.00013032       2.71508036       2.71468486       0.00000000
Si      -2.71443528      -0.00081939       2.71540478       0.00000000
