10
Lattice="16.28999089631971 0.0 0.0 0.0 16.28999089631971 0.0 0.0 0.0 34.281931910070035" Properties=species:S:1:pos:R:3:initial_magmoms:R:1 pbc="T T T"
Si       1.35190710      -1.35902583       1.35945077       0.00000000
Si      -1.36197432       1.35537687       1.35951933       0.00000000
Si       1.34675946       1.35744570      -1.37430857       0.00000000
Si      -1.36865322      -1.37520180      -1.36727048       0.00000000
Si       2.53373031      -0.10906155      -2.83542932       0.00000000
Si       2.71248048       2.71366965       0.00089133       0.00000000
Si       2.71063971      -0.00144981       2.71643324       0.00000000
Si       2.71334385      -2.71641289      -0.00263971       0.00000000
Si      -0.00444717       2.71347417       2.71670749       0.00000000
Si      -0.00485442      -2.71587857       2.71677606       0.00000000
