10
Lattice="16.28999089631971 0.0 0.0 0.0 16.28999089631971 0.0 0.0 0.0 34.281931910070035" Properties=species:S:1:pos:R:3:initial_magmoms:R:1 pbc="T T T"
Si      -0.37703205      -1.95318729      -1.33037968       0.00000000
Si       0.39159531       1.85689710      -1.46877591       0.00000000
Si       1.83510108      -0.49303314       1.48667109       0.00000000
Si      -1.70074116       0.83681730       1.53171757       0.00000000
Si       1.08289404       0.51163632       3.43388591       0.00000000
Si      -1.16178651      -0.13900257       3.67296824       0.00000000
Si       1.67505183      -2.61899217      -2.31142627       0.00000000
Si       2.07811530      -2.79352323       1.81245247       0.00000000
Si       2.45601072       2.95963236      -0.78910195       0.00000000
Si      -1.02825738      -3.80817846      -0.05299990       0.00000000
