10
Lattice="16.28999089631971 0.0 0.0 0.0 16.28999089631971 0.0 0.0 0.0 34.281931910070035" Properties=species:S:1:pos:R:3:initial_magmoms:R:1 pbc="T T T"
Si       0.80900850       1.73784978       1.33349933       0.00000000
Si      -1.83229920      -0.79768872      -1.31766107       0.00000000
Si       0.81604969       1.80011016      -1.41135364       0.00000000
Si       1.61648832      -1.87323597       0.02900253       0.00000000
Si       2.05349364       0.38770200      -2.78664267       0.00000000
Si      -0.68761719      -2.32533234      -2.77286133       0.00000000
Si       3.40075646      -0.91698039      -1.31659833       0.00000000
Si       3.13451270       1.64594160       1.42060977       0.00000000
Si      -3.18086685      -2.23943517       0.07415186       0.00000000
Si       0.70848209      -3.64817808      -1.37936858       0.00000000
