10
Lattice="16.28999089631971 0.0 0.0 0.0 16.28999089631971 0.0 0.0 0.0 34.281931910070035" Properties=species:S:1:pos:R:3:initial_magmoms:R:1 pbc="T T T"
Si      -0.61416558       2.22167907       0.07387760       0.00000000
Si      -0.95426820      -1.39040037       1.58372329       0.00000000
Si      -0.98005527      -0.87195483      -1.94505506       0.00000000
Si       2.29065486      -0.51945552      -0.19040196       0.00000000
Si       2.32294815       0.47816037      -2.32579041       0.00000000
Si      -0.33495498      -0.08560395       3.40142090       0.00000000
Si       0.08242740      -3.38276511       0.63147354       0.00000000
Si       0.27567567       0.29706444      -3.51520270       0.00000000
Si      -2.83493241       2.12921703      -0.64072967       0.00000000
Si      -0.92040129      -3.17550744      -1.45033222       0.00000000
