10
Lattice="16.28999089631971 0.0 0.0 0.0 16.28999089631971 0.0 0.0 0.0 34.281931910070035" Properties=species:S:1:pos:R:3:initial_magmoms:R:1 pbc="T T T"
Si      -0.28339713       0.29995170       2.31310608       0.00000000
Si       2.20788863       0.68709984      -0.45526431       0.00000000
Si      -0.85273263      -2.08355616      -0.74203283       0.00000000
Si      -1.62504153       1.36259401      -1.18941229       0.00000000
Si      -0.72288504       2.55245471       2.32431628       0.00000000
Si      -1.98552294       3.07629224       0.41573722       0.00000000
Si      -3.63493431       0.30781977      -0.58094194       0.00000000
Si       3.53720150      -0.44171964       1.28135649       0.00000000
Si       0.33003363      -2.64453489      -2.74286462       0.00000000
Si       2.97384443      -0.46661076      -2.36003808       0.00000000
