10
Lattice="16.28999089631971 0.0 0.0 0.0 16.28999089631971 0.0 0.0 0.0 34.281931910070035" Properties=species:S:1:pos:R:3:initial_magmoms:R:1 pbc="T T T"
Si       0.92642859      -2.10424446      -0.04850896       0.00000000
Si       0.36849609       0.56760876       2.22685270       0.00000000
Si      -2.18474964       0.09878256      -0.80531731       0.00000000
Si       1.34123715       1.53059211      -1.17755074       0.00000000
Si       0.30467187       2.88039033       2.00227163       0.00000000
Si       2.65171878      -0.18282267       2.37481360       0.00000000
Si       0.24578352       3.55021721      -0.38796884       0.00000000
Si       3.13569468      -1.76093271       0.62965660       0.00000000
Si      -2.74507677      -2.10628071      -1.32863130       0.00000000
Si      -2.29526100       1.68390742      -2.45177658       0.00000000
