10
Lattice="16.28999089631971 0.0 0.0 0.0 16.28999089631971 0.0 0.0 0.0 34.281931910070035" Properties=species:S:1:pos:R:3:initial_magmoms:R:1 pbc="T T T"
Si       0.83684988      -1.35216774       1.72319671       0.00000000
Si       0.90012024      -1.27355220      -1.76442346       0.00000000
Si      -2.44966481      -0.31120416      -0.14576686       0.00000000
Si       0.54636660       2.45772117      -0.16150227       0.00000000
Si      -2.43150146       1.46249991       1.58595162       0.00000000
Si      -0.96670073       3.01105989      -1.92739985       0.00000000
Si       2.31997293      -0.02090007       2.94522553       0.00000000
Si       0.72278730      -3.55943831      -1.28200784       0.00000000
Si       3.21035175      -0.72672948      -2.00573411       0.00000000
Si      -0.59767196       2.44975536       2.95926742       0.00000000
