10
Lattice="16.28999089631971 0.0 0.0 0.0 16.28999089631971 0.0 0.0 0.0 34.281931910070035" Properties=species:S:1:pos:R:3:initial_magmoms:R:1 pbc="T T T"
Si      -1.35653998      -1.35716035       1.35790808       0.00000000
Si       1.35738054      -1.35706261      -1.35783952       0.00000000
Si       1.35788553       1.35795001       1.35797665       0.00000000
Si      -1.35819015       1.35812268      -1.35797665       0.00000000
Si       2.71368594       0.00117155       2.71557619       0.00000000
Si       2.71479366      -2.71468750      -0.00037710       0.00000000
Si      -0.00070047       2.71513507      -2.71492483       0.00000000
Si       2.71476108       2.71539571      -0.00020569       0.00000000
Si      -2.71533527      -2.71496443       0.00006856       0.00000000
Si       0.00066789      -2.71646311      -2.71393066       0.00000000
