10
Lattice="16.28999089631971 0.0 0.0 0.0 16.28999089631971 0.0 0.0 0.0 34.281931910070035" Properties=species:S:1:pos:R:3:initial_magmoms:R:1 pbc="T T T"
Si      -1.70822057      -0.99406467       1.24877903       0.00000000
Si       1.12284038       1.72177155       1.24920070       0.00000000
Si      -1.57835669       0.84960495      -1.60854758       0.00000000
Si       1.82122689      -1.77523533      -0.24649138       0.00000000
Si      -0.32441626      -2.30083218       2.67026985       0.00000000
Si       2.74635228      -0.16058682      -2.33820463       0.00000000
Si       2.38391607       0.41948379       2.70189495       0.00000000
Si      -2.58344969      -2.70285309      -0.24875399       0.00000000
Si      -0.69871298       0.32283522      -3.85164992       0.00000000
Si       3.59173812      -0.96576894       1.29863870       0.00000000
