10
Lattice="16.28999089631971 0.0 0.0 0.0 16.28999089631971 0.0 0.0 0.0 34.281931910070035" Properties=species:S:1:pos:R:3:initial_magmoms:R:1 pbc="T T T"
Si      -0.52727635      -0.75021966       2.18801125       0.00000000
Si       1.29316210       1.98576729      -0.19437866       0.00000000
Si       0.94836796      -1.91275551      -1.14830823       0.00000000
Si      -2.29600449       0.38822328      -0.77336653       0.00000000
Si      -1.90840023      -0.45652725      -2.92987267       0.00000000
Si      -0.94359825      -3.03495732       1.69236280       0.00000000
Si       0.15883727      -1.49097483      -3.29854077       0.00000000
Si      -0.19035354       3.64429359       0.30294960       0.00000000
Si      -2.73231585       0.05100399       2.57642575       0.00000000
Si      -3.61034685      -0.93788046       0.62907380       0.00000000
