10
Lattice="16.28999089631971 0.0 0.0 0.0 16.28999089631971 0.0 0.0 0.0 34.281931910070035" Properties=species:S:1:pos:R:3:initial_magmoms:R:1 pbc="T T T"
Si       0.73860489       2.21366439       0.29273358       0.00000000
Si       2.06063613      -1.13756328      -0.39911047       0.00000000
Si      -1.80410121      -0.03450222      -1.59644190       0.00000000
Si      -0.20474901      -0.92481588       2.23820002       0.00000000
Si       2.03722740       0.15242553       1.63528335       0.00000000
Si      -1.12557384      -1.64315601      -3.11883478       0.00000000
Si       2.76263739      -0.54164250      -2.49942849       0.00000000
Si      -3.72737096      -0.68352840      -0.32022770       0.00000000
Si       1.78373871       2.90955757      -1.71759431       0.00000000
Si      -0.90161892       3.42546024       1.51766197       0.00000000
