10
Lattice="10.86 0.0 0.0 0.0 10.86 0.0 0.0 0.0 10.86" Properties=species:S:1:pos:R:3:initial_magmoms:R:1 pbc="T T T"
Si      -1.39124202      -1.29363234       1.30982460       0.00000000
Si       1.32375798      -1.29363234      -1.40517540       0.00000000
Si      -1.39124202       1.42136766      -1.40517540       0.00000000
Si       1.61257968       1.42883934       1.48931868       0.00000000
Si      -0.14455746      -2.74304052       2.55403308       0.00000000
Si       2.66430552      -2.66550012      -0.02756268       0.00000000
Si      -2.74874202      -2.65113234      -0.04767540       0.00000000
Si      -0.03374202      -2.65113234      -2.76267540       0.00000000
Si      -2.74874202       0.06386766       2.66732460       0.00000000
Si       2.68125798       0.06386766      -2.76267540       0.00000000
