10
Lattice="10.86 0.0 0.0 0.0 10.86 0.0 0.0 0.0 10.86" Properties=species:S:1:pos:R:3:initial_magmoms:R:1 pbc="T T T"
Si       1.06677780       1.42262742      -1.51745694       0.00000000
Si      -1.59410682       1.35933534       1.23568338       0.00000000
Si       1.61741238       0.02499972       1.82757510       0.00000000
Si      -1.61257968      -1.42883934      -1.48931868       0.00000000
Si       2.42617830       2.70752832      -0.17949408       0.00000000
Si      -0.28882170       2.70752832       2.53550592       0.00000000
Si       2.42617830      -0.00747168      -2.89449408       0.00000000
Si      -3.00382170      -0.00747168       2.53550592       0.00000000
Si      -0.28882170       2.70752832      -2.89449408       0.00000000
Si      -0.28882170      -2.72247168      -2.89449408       0.00000000
