10
Lattice="16.28999089631971 0.0 0.0 0.0 16.28999089631971 0.0 0.0 0.0 34.281931910070035" Properties=species:S:1:pos:R:3:initial_magmoms:R:1 pbc="T T T"
Si      -0.08757504       2.24931410      -0.59222070       0.00000000
Si      -2.20647235      -0.47154663       0.79588978       0.00000000
Si       1.55505969       0.39408346       1.82547961       0.00000000
Si       0.72215199      -0.95889456      -2.16373962       0.00000000
Si       1.77640821       2.58466004      -1.94433514       0.00000000
Si      -3.53740282       0.12406464      -1.14128043       0.00000000
Si      -2.03304087      -2.54990628       1.94625493       0.00000000
Si       0.50973039      -0.30211434       3.83587607       0.00000000
Si       0.31982157       3.72891851       1.10549008       0.00000000
Si       3.51326430      -0.87467526       1.52643815       0.00000000
