10
Lattice="16.28999089631971 0.0 0.0 0.0 16.28999089631971 0.0 0.0 0.0 34.281931910070035" Properties=species:S:1:pos:R:3:initial_magmoms:R:1 pbc="T T T"
Si      -1.35708732       1.36024758       1.36041066       0.00000000
Si       1.36062225      -1.35454608       1.36298181       0.00000000
Si      -1.35024552      -1.34980569      -1.38818933       0.00000000
Si       1.36930482       1.36731744      -1.38734942       0.00000000
Si      -2.56873752       0.19608273      -2.80825402       0.00000000
Si      -2.71358820      -2.71088569      -0.00013713       0.00000000
Si       2.71476108      -2.71208137       0.00983892       0.00000000
Si       0.00084708      -2.71113167       2.71910723       0.00000000
Si       2.71280628       2.71757925      -0.00017141       0.00000000
Si      -2.71347417       0.00329058       2.71866157       0.00000000
