10
Lattice="16.28999089631971 0.0 0.0 0.0 16.28999089631971 0.0 0.0 0.0 34.281931910070035" Properties=species:S:1:pos:R:3:initial_magmoms:R:1 pbc="T T T"
Si      -1.34879571      -1.35527677       1.34621794       0.00000000
Si      -1.35467640       1.35671242      -1.35729101       0.00000000
Si       1.35887922      -1.35654739      -1.35749670       0.00000000
Si       1.35715248       1.36486068       1.36805554       0.00000000
Si       0.09927126      -2.40045946       2.82246731       0.00000000
Si      -2.61734688       0.11756405       2.65482857       0.00000000
Si       2.71151937       2.71496611      -0.00123415       0.00000000
Si      -2.71278999      -0.00137696      -2.71468486       0.00000000
Si       0.00192222       2.71407016      -2.71499340       0.00000000
Si      -2.71552671       2.71450999       0.00390814       0.00000000
