10
Lattice="16.28999089631971 0.0 0.0 0.0 16.28999089631971 0.0 0.0 0.0 34.281931910070035" Properties=species:S:1:pos:R:3:initial_magmoms:R:1 pbc="T T T"
Si       2.34924606      -0.14594211      -0.13232833       0.00000000
Si      -0.87376302       1.99977669       0.90302087       0.00000000
Si      -1.27852065      -1.39578259       1.45115499       0.00000000
Si      -0.55817685      -0.31609116      -2.31475162       0.00000000
Si      -2.88598527       0.18736758      -1.98029690       0.00000000
Si      -3.10946778       1.71559764      -0.04089837       0.00000000
Si      -0.43751682       1.75097952       3.25054604       0.00000000
Si       2.98265013       1.97714988      -1.11251788       0.00000000
Si       0.60527124       2.39730156      -2.85308110       0.00000000
Si       0.12041568      -2.26152278       3.08091894       0.00000000
