10
Lattice="16.28999089631971 0.0 0.0 0.0 16.28999089631971 0.0 0.0 0.0 34.281931910070035" Properties=species:S:1:pos:R:3:initial_magmoms:R:1 pbc="T T T"
Si      -1.39893633       0.86574020      -1.62976395       0.00000000
Si      -0.22781565       1.91280275       1.36911828       0.00000000
Si      -1.28207187      -1.63075185       1.14971379       0.00000000
Si       2.16847593      -0.70204266      -0.75125468       0.00000000
Si       1.78807185       1.63222379       2.56847234       0.00000000
Si      -3.04593678      -1.97675145      -0.45941243       0.00000000
Si      -2.40938874      -1.00715436      -2.57813985       0.00000000
Si       3.27826476       1.39605137      -1.09136591       0.00000000
Si       2.97023715      -2.00574765       1.05989508       0.00000000
Si      -3.34054143       1.68462872      -0.39791061       0.00000000
