10
Lattice="16.28999089631971 0.0 0.0 0.0 16.28999089631971 0.0 0.0 0.0 34.281931910070035" Properties=species:S:1:pos:R:3:initial_magmoms:R:1 pbc="T T T"
Si      -1.86398325      -0.33534594       1.35211443       0.00000000
Si       2.01588750      -0.28057896       1.19935406       0.00000000
Si       0.22781565      -1.91280275      -1.36911828       0.00000000
Si      -0.33011685       2.09969955      -1.19949119       0.00000000
Si      -1.17112068      -1.04706256      -2.99888223       0.00000000
Si       1.91231568       2.76144822      -0.66280724       0.00000000
Si       3.32050473       0.79620633      -0.39969327       0.00000000
Si      -1.45658664       1.14425847       3.04982521       0.00000000
Si      -3.11272578      -0.22817403      -1.76702889       0.00000000
Si      -1.77640821      -2.58466004       1.94433514       0.00000000
