10
Lattice="16.28999089631971 0.0 0.0 0.0 16.28999089631971 0.0 0.0 0.0 34.281931910070035" Properties=species:S:1:pos:R:3:initial_magmoms:R:1 pbc="T T T"
Si       1.35715248      -1.35664749       1.35818234       0.00000000
Si       1.35822762       1.35845568      -1.35619398       0.00000000
Si      -1.35765747       1.35786924       1.35746242       0.00000000
Si      -1.35814617      -1.35778779      -1.35814806       0.00000000
Si      -2.71365336       0.00213399       2.71485627       0.00000000
Si       0.00198738      -2.71391400       2.71526765       0.00000000
Si      -2.71453302      -2.71474479       0.00010285       0.00000000
Si       2.71479366      -2.71503801       0.00047995       0.00000000
Si       2.71174743      -0.00045612      -2.71873013       0.00000000
Si       2.71684620      -0.00109143       2.71389637       0.00000000
