10
Lattice="16.28999089631971 0.0 0.0 0.0 16.28999089631971 0.0 0.0 0.0 34.281931910070035" Properties=species:S:1:pos:R:3:initial_magmoms:R:1 pbc="T T T"
Si       1.35599589       1.35573525      -1.35739385       0.00000000
Si       1.35514881      -1.35925389       1.35948505       0.00000000
Si      -1.35878148      -1.35884664      -1.35722244       0.00000000
Si      -1.36032903       1.35571896       1.35893654       0.00000000
Si       2.71490769       2.71311579       0.00195407       0.00000000
Si      -0.00179190       2.71318095      -2.71485627       0.00000000
Si      -2.70542691       0.01049076       2.72298109       0.00000000
Si       2.71365336      -0.00213399      -2.71485627       0.00000000
Si      -2.71439944       2.71456560      -0.00027426       0.00000000
Si      -2.71411762      -2.71551042      -0.00030854       0.00000000
