10
Lattice="16.28999089631971 0.0 0.0 0.0 16.28999089631971 0.0 0.0 0.0 34.281931910070035" Properties=species:S:1:pos:R:3:initial_magmoms:R:1 pbc="T T T"
Si      -2.33344476      -0.18002079       0.44737946       0.00000000
Si       0.41583483      -1.10229543      -2.09027340       0.00000000
Si       0.35881983       2.37838887      -0.37353614       0.00000000
Si       0.87941565      -1.29420792       1.91382420       0.00000000
Si       2.20011111      -2.63997369       0.37617585       0.00000000
Si       2.54371608      -0.30358044      -2.53381329       0.00000000
Si       0.33127344      -3.36417822      -1.39650956       0.00000000
Si      -1.70709426       3.35228652      -0.00719921       0.00000000
Si      -2.63173095       1.73739366       2.08430834       0.00000000
Si      -0.88065369      -0.12833262      -3.77008900       0.00000000
