10
Lattice="16.28999089631971 0.0 0.0 0.0 16.28999089631971 0.0 0.0 0.0 34.281931910070035" Properties=species:S:1:pos:R:3:initial_magmoms:R:1 pbc="T T T"
Si      -1.35679410      -1.35589815      -1.35732529       0.00000000
Si      -1.35687555       1.35726651       1.35773667       0.00000000
Si       1.35778779      -1.35744570       1.35746242       0.00000000
Si       1.35808101       1.35997065      -1.35732529       0.00000000
Si      -2.71260754       0.00138465       2.71458201       0.00000000
Si       0.00179190      -2.71318095       2.71485627       0.00000000
Si      -0.00032580      -2.71256193      -2.71626183       0.00000000
Si      -2.71781220      -0.00102627      -2.71108525       0.00000000
Si      -2.71453954       2.71445157       0.00034282       0.00000000
Si      -2.71454605      -2.71474479      -0.00034282       0.00000000
