10
Lattice="16.28999089631971 0.0 0.0 0.0 16.28999089631971 0.0 0.0 0.0 34.281931910070035" Properties=species:S:1:pos:R:3:initial_magmoms:R:1 pbc="T T T"
Si       1.24602210       1.52438562      -1.41001665       0.00000000
Si      -1.53028260      -1.19057094      -1.46109675       0.00000000
Si       0.98829801      -1.68816528       1.48379141       0.00000000
Si      -0.30869550       1.20063816       2.20124408       0.00000000
Si      -1.53142290      -1.32167286       2.19473051       0.00000000
Si      -1.05705810       3.27718962       1.25811332       0.00000000
Si       2.54601297       0.13499523      -2.95119604       0.00000000
Si      -0.16146648      -2.60563437      -2.93210099       0.00000000
Si       2.58297498       3.02865309       0.13116274       0.00000000
Si      -3.14336727      -2.49642621       0.01837513       0.00000000
