10
Lattice="16.28999089631971 0.0 0.0 0.0 16.28999089631971 0.0 0.0 0.0 34.281931910070035" Properties=species:S:1:pos:R:3:initial_magmoms:R:1 pbc="T T T"
Si       1.30087053      -1.50662952       1.19383466       0.00000000
Si       1.64928105       0.95696161      -1.35379425       0.00000000
Si      -1.16823735      -1.65871296      -1.22341999       0.00000000
Si      -1.66821003       0.93395850       1.65715523       0.00000000
Si      -0.71807949      -0.88918965       2.97742173       0.00000000
Si      -0.80879850      -2.88214083       1.53720269       0.00000000
Si       0.08964387       2.10660718      -2.67783176       0.00000000
Si       2.49836472       2.54942477       0.32039911       0.00000000
Si       1.62178353      -0.41866929       3.26655571       0.00000000
Si      -2.87990910       2.43945098       0.06331876       0.00000000
