10
Lattice="16.28999089631971 0.0 0.0 0.0 16.28999089631971 0.0 0.0 0.0 34.281931910070035" Properties=species:S:1:pos:R:3:initial_magmoms:R:1 pbc="T T T"
Si      -1.39906665       1.78561206       0.55567614       0.00000000
Si      -1.33828866      -1.51936830      -1.20346789       0.00000000
Si       1.23307155       0.67399875      -1.92428020       0.00000000
Si       0.85494807      -1.38386808       1.74532841       0.00000000
Si      -2.03561469       0.81601497       2.67440357       0.00000000
Si      -0.09273897      -3.43966608       1.19763996       0.00000000
Si       3.09469275      -1.65674187       1.08800628       0.00000000
Si      -0.03981276      -3.60075789      -1.15742723       0.00000000
Si       1.14235254      -1.31895243      -3.36449924       0.00000000
Si      -2.20501440      -0.55206810      -3.14718595       0.00000000
