10
Lattice="16.28999089631971 0.0 0.0 0.0 16.28999089631971 0.0 0.0 0.0 34.281931910070035" Properties=species:S:1:pos:R:3:initial_magmoms:R:1 pbc="T T T"
Si      -0.73889811      -2.21332230      -0.29317925       0.00000000
Si       1.04532930       0.69619780      -2.01039646       0.00000000
Si      -1.64020752       1.21195875       1.22455129       0.00000000
Si       1.29849219      -2.06086419       1.34227551       0.00000000
Si       1.48489866       2.97452861      -1.50072669       0.00000000
Si       1.32201495      -3.35101590      -0.69204975       0.00000000
Si      -0.94301181      -3.13817076       1.94515790       0.00000000
Si       3.00353391      -0.57256092      -2.30943792       0.00000000
Si      -1.46263023       3.49828469       0.74223852       0.00000000
Si      -0.50973039       0.30211434      -3.83587607       0.00000000
