10
Lattice="16.28999089631971 0.0 0.0 0.0 16.28999089631971 0.0 0.0 0.0 34.281931910070035" Properties=species:S:1:pos:R:3:initial_magmoms:R:1 pbc="T T T"
Si       0.10305054       1.30541544       1.96869490       0.00000000
Si      -1.97276787       1.10198592      -0.95122130       0.00000000
Si       2.04374340       0.74640780      -1.23325891       0.00000000
Si      -0.76545081      -2.31163245       0.59314632       0.00000000
Si      -0.73564011      -0.37908459       3.33406514       0.00000000
Si      -2.44902231      -1.45479474       2.11727768       0.00000000
Si      -1.94924511      -0.18816579      -2.98554655       0.00000000
Si      -1.55229039       3.13760061       1.85571629       0.00000000
Si       2.75791329      -1.03575078      -2.67622051       0.00000000
Si       1.53520218       2.67395463      -2.81118855       0.00000000
