10
Lattice="16.28999089631971 0.0 0.0 0.0 16.28999089631971 0.0 0.0 0.0 34.281931910070035" Properties=species:S:1:pos:R:3:initial_magmoms:R:1 pbc="T T T"
Si      -1.34612415      -1.35075949      -1.39572107       0.00000000
Si       1.36852290       1.36643289      -1.39565251       0.00000000
Si      -1.38175038       1.40500761       1.43675657       0.00000000
Si       1.36523232      -1.30120268       1.66990812       0.00000000
Si       0.39762261       2.33023074       2.65277166       0.00000000
Si       2.11022289       0.54950568       3.07790213       0.00000000
Si      -2.68460829      -2.71834066      -0.01158730       0.00000000
Si       2.72059290      -2.70108955       0.00353104       0.00000000
Si       2.73626388       2.70317400      -0.03784727       0.00000000
Si      -2.71239903       2.74642395      -0.01648962       0.00000000
