10
Lattice="16.28999089631971 0.0 0.0 0.0 16.28999089631971 0.0 0.0 0.0 34.281931910070035" Properties=species:S:1:pos:R:3:initial_magmoms:R:1 pbc="T T T"
Si      -0.13618440      -1.65190537       1.62914688       0.00000000
Si       1.53811809      -0.68505966      -1.63332928       0.00000000
Si      -1.82825928       0.44217576      -1.40621135       0.00000000
Si       0.82473012       2.04778332       0.86380232       0.00000000
Si      -1.42467453       2.77052175      -1.49171054       0.00000000
Si       0.87788439       3.18119265      -1.29386940       0.00000000
Si       3.65316282      -0.88511715      -0.55279646       0.00000000
Si      -3.79600983      -0.32498550      -0.42262789       0.00000000
Si      -0.89072091       3.02596524       2.21159723       0.00000000
Si      -0.47444625      -3.78840959       0.56040705       0.00000000
