10
Lattice="16.28999089631971 0.0 0.0 0.0 16.28999089631971 0.0 0.0 0.0 34.281931910070035" Properties=species:S:1:pos:R:3:initial_magmoms:R:1 pbc="T T T"
Si       0.13618440       1.65190537      -1.62914688       0.00000000
Si       0.40290057       0.29646823       2.28060679       0.00000000
Si      -0.33826185      -2.13650422      -1.06873982       0.00000000
Si       2.52969039       1.29028366       1.67371342       0.00000000
Si       1.67430249       0.96684571      -3.26247616       0.00000000
Si       3.84872427       0.09721383       0.20833142       0.00000000
Si       0.96091452       3.69968869      -0.76534456       0.00000000
Si      -1.22227128       1.67032936       3.36168812       0.00000000
Si       1.35894438      -2.68474417      -2.59932609       0.00000000
Si      -1.69207488       2.09408113      -3.03535823       0.00000000
