10
Lattice="16.28999089631971 0.0 0.0 0.0 16.28999089631971 0.0 0.0 0.0 34.281931910070035" Properties=species:S:1:pos:R:3:initial_magmoms:R:1 pbc="T T T"
Si       2.24134110      -0.83362446      -0.27154733       0.00000000
Si      -0.63340407      -2.12309199       0.98018954       0.00000000
Si      -0.49317975       2.01332997       1.27792829       0.00000000
Si      -2.37737889       0.42015168      -1.74056322       0.00000000
Si      -0.17845695      -3.54938086      -0.96184870       0.00000000
Si      -0.68484789       2.97424449      -2.07920033       0.00000000
Si      -2.98265013      -1.97714988       1.11251788       0.00000000
Si       2.05780167      -3.08043900      -0.99177684       0.00000000
Si      -2.89992951       2.19815631       1.52225576       0.00000000
Si      -1.12277196      -1.07856090      -3.64965651       0.00000000
