10
Lattice="16.28999089631971 0.0 0.0 0.0 16.28999089631971 0.0 0.0 0.0 34.281931910070035" Properties=species:S:1:pos:R:3:initial_magmoms:R:1 pbc="T T T"
Si       1.69717365      -0.26093322       1.57820390       0.00000000
Si      -0.82473012      -2.04778332      -0.86380232       0.00000000
Si      -1.71545103       0.97818192       1.34779491       0.00000000
Si       0.05315427       1.13340933      -2.15767172       0.00000000
Si      -2.24940465       0.72273843      -2.35551286       0.00000000
Si      -3.04512228       1.75827744      -0.42177084       0.00000000
Si       0.74919339       3.30418215      -1.61947937       0.00000000
Si       0.71338797      -2.73284298      -2.49713160       0.00000000
Si       1.56877587      -2.40940503       2.43905797       0.00000000
Si      -2.65298940      -1.60560756      -2.27001367       0.00000000
