10
Lattice="16.28999089631971 0.0 0.0 0.0 16.28999089631971 0.0 0.0 0.0 34.281931910070035" Properties=species:S:1:pos:R:3:initial_magmoms:R:1 pbc="T T T"
Si      -0.78258789      -2.08463130      -0.80843697       0.00000000
Si      -1.20430341       0.71641791       1.95174004       0.00000000
Si       0.25475931       1.38346083      -2.11684191       0.00000000
Si      -2.11225914      -1.30453578      -2.57800272       0.00000000
Si      -2.66696622       2.40539769       0.94470773       0.00000000
Si      -1.85116302       1.02732885      -3.11897191       0.00000000
Si       0.93286314      -3.06281322      -2.15623188       0.00000000
Si       0.29807442       1.68399504       3.46493306       0.00000000
Si       1.58436540       3.05276229       2.00258017       0.00000000
Si       1.68205653       0.24136893      -3.77571124       0.00000000
