10
Lattice="16.28999089631971 0.0 0.0 0.0 16.28999089631971 0.0 0.0 0.0 34.281931910070035" Properties=species:S:1:pos:R:3:initial_magmoms:R:1 pbc="T T T"
Si       0.82699443       1.83845682       1.23249583       0.00000000
Si       1.46173428      -1.88636571       0.21156939       0.00000000
Si      -1.83633912      -0.84541842       1.32084042       0.00000000
Si       0.65503719      -0.32788512      -2.76219964       0.00000000
Si       0.52663941      -2.47635693      -1.90134557       0.00000000
Si       2.16077076       0.50236731       2.76131658       0.00000000
Si      -0.55464192      -2.23060599       2.76851579       0.00000000
Si       3.34827918      -0.96383043       1.30074777       0.00000000
Si       2.62242936       2.80455156      -0.14645249       0.00000000
Si      -3.22532226      -2.09631123      -0.21337086       0.00000000
