10
Lattice="16.28999089631971 0.0 0.0 0.0 16.28999089631971 0.0 0.0 0.0 34.281931910070035" Properties=species:S:1:pos:R:3:initial_magmoms:R:1 pbc="T T T"
Si      -1.35628911      -1.35736425       1.35866228       0.00000000
Si       1.35775521      -1.35708732      -1.35804521       0.00000000
Si      -1.35765747       1.35824391      -1.35794236       0.00000000
Si       1.36034532       1.36029645       1.35742813       0.00000000
Si       0.00068418      -2.71415835      -2.71434204       0.00000000
Si      -2.71467963       2.71505430      -0.00068564       0.00000000
Si       2.71458189      -2.71524978       0.00000000       0.00000000
Si      -2.71520091      -2.71474479      -0.00068564       0.00000000
Si      -2.71490769       0.00267156      -2.71547334       0.00000000
Si       2.71531494       2.71511946      -0.00023997       0.00000000
