10
Lattice="16.28999089631971 0.0 0.0 0.0 16.28999089631971 0.0 0.0 0.0 34.281931910070035" Properties=species:S:1:pos:R:3:initial_magmoms:R:1 pbc="T T T"
Si      -1.35571896       1.35527913      -1.35605686       0.00000000
Si       1.35808101       1.35630540       1.35886798       0.00000000
Si      -1.35682668      -1.35804843       1.35883369       0.00000000
Si       1.35865116      -1.36011726      -1.36181622       0.00000000
Si      -2.69009802      -0.00591327      -2.73182926       0.00000000
Si       2.71344159       2.71256193       0.00119987       0.00000000
Si      -2.71313208       2.71583622       0.00099418       0.00000000
Si      -2.71389771      -2.71511946       0.00253686       0.00000000
Si       0.00073305       2.71415835       2.71663893       0.00000000
Si      -2.71458189      -0.00096111       2.71687890       0.00000000
