10
Lattice="16.28999089631971 0.0 0.0 0.0 16.28999089631971 0.0 0.0 0.0 34.281931910070035" Properties=species:S:1:pos:R:3:initial_magmoms:R:1 pbc="T T T"
Si       1.35536058       1.35625653      -1.35766811       0.00000000
Si       1.35775521      -1.35695700       1.35773667       0.00000000
Si      -1.35734796       1.35785295       1.35777095       0.00000000
Si      -1.35808101      -1.35630540      -1.35886798       0.00000000
Si      -2.71231758       0.00302994       2.71543906       0.00000000
Si      -2.71379997      -0.00102627      -2.71492483       0.00000000
Si      -2.71490769      -2.71435383      -0.00003428       0.00000000
Si       0.00026064      -2.71536381       2.71454773       0.00000000
Si       2.71503801       2.71528236      -0.00003428       0.00000000
Si       2.71555929      -2.71495656       0.00027426       0.00000000
