10
Lattice="16.28999089631971 0.0 0.0 0.0 16.28999089631971 0.0 0.0 0.0 34.281931910070035" Properties=species:S:1:pos:R:3:initial_magmoms:R:1 pbc="T T T"
Si       1.39546656      -1.25450919       1.39887501       0.00000000
Si       1.36956546       1.33377633      -1.37055812       0.00000000
Si      -1.34449515      -1.38225537      -1.36884402       0.00000000
Si      -1.29999087       1.38939039       1.54117939       0.00000000
Si      -2.70659979       2.71205694       0.02283178       0.00000000
Si       0.01521486       2.69531082      -2.73086594       0.00000000
Si      -2.70141957      -0.02234988      -2.72963179       0.00000000
Si       2.73790917       2.70205488       0.01683244       0.00000000
Si       2.71355562      -2.72784195       0.00668498       0.00000000
Si      -2.70747945      -2.74062960       0.01909505       0.00000000
