10
Lattice="16.28999089631971 0.0 0.0 0.0 16.28999089631971 0.0 0.0 0.0 34.281931910070035" Properties=species:S:1:pos:R:3:initial_magmoms:R:1 pbc="T T T"
Si       1.25677350       1.50850287      -1.25914178       0.00000000
Si      -0.45263394       1.12231584       2.04886081       0.00000000
Si      -1.92735135      -0.45838431      -1.35598829       0.00000000
Si       1.61977986      -1.75487283      -0.31350844       0.00000000
Si      -0.01278765      -0.63237780       3.52932686       0.00000000
Si       0.25682814       1.10793177      -3.44852430       0.00000000
Si      -0.90301986      -1.02359844      -3.46528818       0.00000000
Si      -2.86863642       1.75707198      -1.65667529       0.00000000
Si       3.68338077      -0.65148597       0.36715970       0.00000000
Si       1.14346026      -2.13382710      -2.93566632       0.00000000
