10
Lattice="16.28999089631971 0.0 0.0 0.0 16.28999089631971 0.0 0.0 0.0 34.281931910070035" Properties=species:S:1:pos:R:3:initial_magmoms:R:1 pbc="T T T"
Si       1.92735135       0.45838431       1.35598829       0.00000000
Si       1.02433149      -0.56521413      -2.10929989       0.00000000
Si      -0.94128507       2.21545629      -0.30068699       0.00000000
Si      -1.15659000      -2.02844709       0.72814864       0.00000000
Si      -1.34825814      -1.06753257      -2.62897998       0.00000000
Si       2.18417949       1.56631608      -2.09253601       0.00000000
Si      -0.69357933      -1.98413829       3.06874885       0.00000000
Si      -2.64525165       1.82127087      -1.91152731       0.00000000
Si       3.18412485       1.96688718       0.09684651       0.00000000
Si       0.74189547       3.37861116      -1.55636630       0.00000000
