10
Lattice="16.28999089631971 0.0 0.0 0.0 16.28999089631971 0.0 0.0 0.0 34.281931910070035" Properties=species:S:1:pos:R:3:initial_magmoms:R:1 pbc="T T T"
Si      -1.44228402       1.81229508       0.53616971       0.00000000
Si      -1.15984800      -2.13153021      -0.01676387       0.00000000
Si       0.99994536       0.40057110       2.18938252       0.00000000
Si       0.96848937      -0.75067578      -2.12805211       0.00000000
Si       0.88663212      -3.24175887       0.51285799       0.00000000
Si      -2.18417949      -1.56631608       2.09253601       0.00000000
Si      -1.93776066       2.08296972      -1.88907263       0.00000000
Si       0.22714776       2.60032383       2.33388095       0.00000000
Si       2.50665633      -2.37285027      -1.09085168       0.00000000
Si      -0.25682814      -1.10793177       3.44852430       0.00000000
