10
Lattice="16.28999089631971 0.0 0.0 0.0 16.28999089631971 0.0 0.0 0.0 34.281931910070035" Properties=species:S:1:pos:R:3:initial_magmoms:R:1 pbc="T T T"
Si      -1.35477322      -1.34809524       1.36423653       0.00000000
Si       1.35443527       1.36585134       1.36876175       0.00000000
Si      -1.38365539       1.30653945      -1.42126113       0.00000000
Si       1.29971553      -1.39924584      -1.43301298       0.00000000
Si       0.32460102       2.30106024      -2.67016872       0.00000000
Si       2.14584094       0.52566201      -2.91663439       0.00000000
Si      -2.25901483      -0.40208607      -2.91903412       0.00000000
Si      -0.53400157      -2.38687596      -2.80580084       0.00000000
Si       2.72231146      -2.69993718      -0.00500859       0.00000000
Si      -2.72067343      -2.70427032      -0.01126505       0.00000000
