10
Lattice="16.28999089631971 0.0 0.0 0.0 16.28999089631971 0.0 0.0 0.0 34.281931910070035" Properties=species:S:1:pos:R:3:initial_magmoms:R:1 pbc="T T T"
Si      -0.90189585      -2.16200880       0.33541461       0.00000000
Si      -0.37326906       1.40690214       1.86942907       0.00000000
Si       2.26963683      -0.44898498      -0.51385216       0.00000000
Si      -0.80176122       1.30370499      -1.81114976       0.00000000
Si       1.92839391       1.57975209       2.39476569       0.00000000
Si      -0.06032187      -0.22084353      -3.51455134       0.00000000
Si       2.18538495      -0.30209805      -2.85455522       0.00000000
Si      -3.20139225      -1.71919773      -0.09454962       0.00000000
Si      -2.97023715       2.00574765      -1.05989508       0.00000000
Si       3.54559995       1.17605655       0.66099030       0.00000000
