10
Lattice="16.28999089631971 0.0 0.0 0.0 16.28999089631971 0.0 0.0 0.0 34.281931910070035" Properties=species:S:1:pos:R:3:initial_magmoms:R:1 pbc="T T T"
Si      -1.35533614      -1.35666378       1.35691391       0.00000000
Si      -1.35755647       1.35728280      -1.35797665       0.00000000
Si       1.35790182      -1.35803214      -1.35753098       0.00000000
Si       1.35878148       1.35884664       1.35722244       0.00000000
Si      -2.71451135       2.71451673       0.00000000       0.00000000
Si       2.71477737       2.71458189      -0.00017141       0.00000000
Si       2.71428867      -0.00107514      -2.71578188       0.00000000
Si      -2.71520795      -2.71521720       0.00030854       0.00000000
Si      -0.00021177      -2.71580364      -2.71468486       0.00000000
Si       2.71393029      -0.00040725       2.71670749       0.00000000
