10
Lattice="16.28999089631971 0.0 0.0 0.0 16.28999089631971 0.0 0.0 0.0 34.281931910070035" Properties=species:S:1:pos:R:3:initial_magmoms:R:1 pbc="T T T"
Si      -1.38543192       1.29078702       1.33319080       0.00000000
Si      -1.36774098      -1.33674111      -1.35780524       0.00000000
Si       1.34241003       1.37946978      -1.35862800       0.00000000
Si       1.26843714      -1.31865921       1.57484427       0.00000000
Si       0.34151985       2.34919719       2.57896261       0.00000000
Si       2.14010268       0.54450954       2.78849390       0.00000000
Si      -2.33864127      -0.37294326       2.69061893       0.00000000
Si       2.68542346      -2.67744721       0.01666103       0.00000000
Si      -0.01422117      -2.69490520      -2.71790736       0.00000000
Si       2.70335712       0.02161683      -2.71811305       0.00000000
