10
Lattice="16.28999089631971 0.0 0.0 0.0 16.28999089631971 0.0 0.0 0.0 34.281931910070035" Properties=species:S:1:pos:R:3:initial_magmoms:R:1 pbc="T T T"
Si      -1.36101810       1.35487188      -1.35375997       0.00000000
Si       1.35679410       1.35589815       1.35732529       0.00000000
Si       1.35646830      -1.35666378      -1.35893654       0.00000000
Si      -1.35775195      -1.35884664       1.35698247       0.00000000
Si      -0.00721647       2.70946683      -2.69029325       0.00000000
Si      -2.71509407       2.71270854       0.00143984       0.00000000
Si      -0.00008145       2.71316466       2.71506196       0.00000000
Si       2.71458189      -0.00154755       2.71478771       0.00000000
Si      -2.71470683      -0.00161271       2.71495911       0.00000000
Si      -2.71612461      -2.71422351      -0.00034282       0.00000000
