10
Lattice="16.28999089631971 0.0 0.0 0.0 16.28999089631971 0.0 0.0 0.0 34.281931910070035" Properties=species:S:1:pos:R:3:initial_magmoms:R:1 pbc="T T T"
Si      -0.24311196       2.30037606      -0.32574710       0.00000000
Si      -2.14583283      -0.92752002       0.26486235       0.00000000
Si       0.85895541      -0.34968114      -2.21543681       0.00000000
Si       1.60886556      -0.57070386       1.72918161       0.00000000
Si       2.02082241       2.72481201      -0.84878683       0.00000000
Si       2.82620979       0.88795161      -2.14629011       0.00000000
Si       1.29885057      -2.60143318      -2.22630418       0.00000000
Si      -3.10676364      -1.01457378      -1.86586375       0.00000000
Si       3.65488046       0.26384913       1.01382014       0.00000000
Si       1.98914976      -2.88126836       1.49195051       0.00000000
