10
Lattice="16.28999089631971 0.0 0.0 0.0 16.28999089631971 0.0 0.0 0.0 34.281931910070035" Properties=species:S:1:pos:R:3:initial_magmoms:R:1 pbc="T T T"
Si      -1.34654769      -1.35747828       1.37457597       0.00000000
Si       1.36590021       1.35617508       1.37550158       0.00000000
Si       1.18750842      -1.46619774      -1.46056881       0.00000000
Si      -1.33377633       1.33608951      -1.52882075       0.00000000
Si      -2.16077076      -0.50236731      -2.76131658       0.00000000
Si       2.18667186       0.31739436      -2.79453579       0.00000000
Si      -0.69903648      -2.38873302      -2.54974719       0.00000000
Si       0.46165860       2.30218425      -2.90776907       0.00000000
Si      -2.69760771       2.70545949      -0.01100793       0.00000000
Si       2.72067343       2.70427032       0.01126505       0.00000000
