10
Lattice="16.28999089631971 0.0 0.0 0.0 16.28999089631971 0.0 0.0 0.0 34.281931910070035" Properties=species:S:1:pos:R:3:initial_magmoms:R:1 pbc="T T T"
Si       1.35668022      -1.35713619       1.35801093       0.00000000
Si      -1.35798327       1.35729909       1.35725672       0.00000000
Si      -1.35876519      -1.35755973      -1.35698247       0.00000000
Si       1.35595904       1.35998694      -1.35759954       0.00000000
Si      -2.71059084       0.00148239      -2.71646752       0.00000000
Si       2.71418020      -2.71471547      -0.00003428       0.00000000
Si       0.00057015       2.71547784       2.71396494       0.00000000
Si       2.71433169       2.71536381      -0.00027426       0.00000000
Si      -2.71551042      -2.71440433       0.00034282       0.00000000
Si      -0.00102627      -2.71510480       2.71482199       0.00000000
