10
Lattice="16.28999089631971 0.0 0.0 0.0 16.28999089631971 0.0 0.0 0.0 34.281931910070035" Properties=species:S:1:pos:R:3:initial_magmoms:R:1 pbc="T T T"
Si      -1.35865116       1.35620766      -1.36030782       0.00000000
Si       1.35711990      -1.35762489      -1.36109630       0.00000000
Si       1.35309627       1.35764118       1.37035243       0.00000000
Si      -1.37288862      -1.34855136       1.37813443       0.00000000
Si       2.71348976       2.71161711       0.00041138       0.00000000
Si       2.71215468      -2.71383255      -0.00095989       0.00000000
Si      -2.71687878       2.71306692       0.00089133       0.00000000
Si       2.71392656      -0.00050499      -2.71735885       0.00000000
Si      -0.00115659       2.71461447      -2.71711888       0.00000000
Si      -0.00143352      -2.71580364      -2.71780452       0.00000000
