10
Lattice="16.28999089631971 0.0 0.0 0.0 16.28999089631971 0.0 0.0 0.0 34.281931910070035" Properties=species:S:1:pos:R:3:initial_magmoms:R:1 pbc="T T T"
Si      -0.37582659      -1.95370857      -1.33096247       0.00000000
Si       0.39166047       1.85699484      -1.46908445       0.00000000
Si       1.83498705      -0.49311459       1.48656824       0.00000000
Si      -1.70134389       0.83684988       1.53195755       0.00000000
Si       1.08279630       0.51162003       3.43385163       0.00000000
Si      -1.16190054      -0.13905144       3.67286539       0.00000000
Si       1.67474232      -2.61882927      -2.31118630       0.00000000
Si       2.07809901      -2.79349065       1.81231534       0.00000000
Si       2.45526138       2.96038170      -0.78841631       0.00000000
Si      -1.02866463      -3.80806443      -0.05354841       0.00000000
