10
Lattice="16.28999089631971 0.0 0.0 0.0 16.28999089631971 0.0 0.0 0.0 34.281931910070035" Properties=species:S:1:pos:R:3:initial_magmoms:R:1 pbc="T T T"
Si       1.40219433      -0.91096938       1.65485834       0.00000000
Si      -2.27297628      -0.28538451       0.65763067       0.00000000
Si       0.18728613      -0.96741423      -2.21533396       0.00000000
Si       0.36285975       2.42380539       0.55444199       0.00000000
Si       0.18542907       1.03360050      -3.47204172       0.00000000
Si       0.94734495      -3.24127017       1.49191623       0.00000000
Si      -2.40137406      -2.43385632       1.51848474       0.00000000
Si       2.88431622       2.41111548      -0.12711747       0.00000000
Si       1.41942915       0.86226228       3.38661110       0.00000000
Si      -1.08234018      -3.62692615       0.05310274       0.00000000
