10
Lattice="16.28999089631971 0.0 0.0 0.0 16.28999089631971 0.0 0.0 0.0 34.281931910070035" Properties=species:S:1:pos:R:3:initial_magmoms:R:1 pbc="T T T"
Si       0.05022207       1.04021424       2.03206265       0.00000000
Si       0.61413300      -2.22171165      -0.07391189       0.00000000
Si       1.14846129       1.34245890      -1.51574218       0.00000000
Si      -2.22076683      -0.09236430      -0.71460727       0.00000000
Si       0.27002304       0.35339526      -3.46285416       0.00000000
Si      -2.00614608       0.61618554      -2.98355820       0.00000000
Si      -1.24098849      -0.41889735       3.41513368       0.00000000
Si      -0.36587340      -3.09355245      -2.01886410       0.00000000
Si       2.25934155       1.38342825       2.71033105       0.00000000
Si      -3.62129958       1.03808025       0.75173462       0.00000000
