10
Lattice="16.28999089631971 0.0 0.0 0.0 16.28999089631971 0.0 0.0 0.0 34.281931910070035" Properties=species:S:1:pos:R:3:initial_magmoms:R:1 pbc="T T T"
Si       1.26333837       1.53965002      -1.33890701       0.00000000
Si      -1.28360313       1.31475777       1.57325016       0.00000000
Si      -1.17833715      -1.61033166      -1.42749157       0.00000000
Si       1.43177697      -1.38945555       1.54571489       0.00000000
Si      -2.55391362      -2.69477325       0.17866382       0.00000000
Si      -2.75677299       2.51362260       0.19592478       0.00000000
Si       2.79692688       2.67396182       0.03783356       0.00000000
Si      -2.64049497      -0.03833037       2.94556352       0.00000000
Si       0.07895763       2.67539045       2.94381514       0.00000000
Si       2.87966379      -2.81351106       0.16207821       0.00000000
