10
Lattice="16.28999089631971 0.0 0.0 0.0 16.28999089631971 0.0 0.0 0.0 34.281931910070035" Properties=species:S:1:pos:R:3:initial_magmoms:R:1 pbc="T T T"
Si      -0.55653156       1.76738355      -1.40675986       0.00000000
Si      -1.05534765      -2.05560252      -0.31443406       0.00000000
Si       2.05463556      -1.05192675      -0.37785566       0.00000000
Si      -0.38957535       0.84398490       2.15657470       0.00000000
Si       1.90746682       0.45724401       2.93018120       0.00000000
Si       2.85261425      -1.46118042       1.78173584       0.00000000
Si       0.65621563       1.20940218      -3.40097524       0.00000000
Si      -3.33420462      -1.62395010      -0.35084149       0.00000000
Si       0.29584269       3.84979941      -0.66438421       0.00000000
Si      -1.70381997      -0.48215142       3.55908360       0.00000000
