10
Lattice="16.28999089631971 0.0 0.0 0.0 16.28999089631971 0.0 0.0 0.0 34.281931910070035" Properties=species:S:1:pos:R:3:initial_magmoms:R:1 pbc="T T T"
Si       1.68702498       1.27064185      -0.89379903       0.00000000
Si      -1.70153937       0.95425191      -1.45893699       0.00000000
Si       1.28335878      -2.03611968      -0.38711179       0.00000000
Si      -1.85520294       0.70890822       2.37316806       0.00000000
Si       0.27927576      -0.01857060       3.13638714       0.00000000
Si      -3.13116606      -0.91613331       1.19832560       0.00000000
Si      -3.21541794      -0.76924638      -1.14237746       0.00000000
Si      -0.03088584      -3.36225600       1.01539711       0.00000000
Si       3.38933391       1.22024547       0.68872440       0.00000000
Si      -1.75765842       2.94455501       1.59736751       0.00000000
