10
Lattice="16.28999089631971 0.0 0.0 0.0 16.28999089631971 0.0 0.0 0.0 34.281931910070035" Properties=species:S:1:pos:R:3:initial_magmoms:R:1 pbc="T T T"
Si      -0.05022207      -1.04021424      -2.03206265       0.00000000
Si      -0.92646117       2.10421188       0.04844040       0.00000000
Si       2.20911948       0.34321401       0.67826840       0.00000000
Si      -1.29121056      -1.45911159       1.38307103       0.00000000
Si       2.04002928      -1.80511119       1.66846828       0.00000000
Si       1.72522503       1.92168243       2.42339112       0.00000000
Si      -0.55796508       2.67121791       2.27512168       0.00000000
Si       0.22900482      -3.34730178       1.29537780       0.00000000
Si       1.09823922       0.30224466      -3.54780483       0.00000000
Si      -2.27098890      -1.13257854      -2.74666992       0.00000000
