10
Lattice="16.28999089631971 0.0 0.0 0.0 16.28999089631971 0.0 0.0 0.0 34.281931910070035" Properties=species:S:1:pos:R:3:initial_magmoms:R:1 pbc="T T T"
Si      -0.06343326       2.31366937      -0.22444393       0.00000000
Si      -0.36849609      -0.56700603      -2.22668129       0.00000000
Si      -1.53785745      -1.05063984       1.46548484       0.00000000
Si       2.28319011      -0.74953548       0.14826944       0.00000000
Si       0.36114930      -1.87414821       2.90419548       0.00000000
Si       0.55796508      -2.67121791      -2.27512168       0.00000000
Si       1.96625187       2.69932535       1.21436955       0.00000000
Si       3.30904376       1.40240840      -0.25567479       0.00000000
Si       0.97265961       0.96355350      -3.40426631       0.00000000
Si      -2.36947824       0.70218045       3.01262930       0.00000000
