10
Lattice="16.28999089631971 0.0 0.0 0.0 16.28999089631971 0.0 0.0 0.0 34.281931910070035" Properties=species:S:1:pos:R:3:initial_magmoms:R:1 pbc="T T T"
Si       0.83735487      -1.35259128       1.72348468       0.00000000
Si       0.90075555      -1.27361736      -1.76414920       0.00000000
Si      -2.44862225      -0.31112271      -0.14525263       0.00000000
Si       0.54674127       2.45723247      -0.16126230       0.00000000
Si      -2.43138743       1.46210895       1.58650013       0.00000000
Si      -0.96650036       3.01096215      -1.92722844       0.00000000
Si       2.32051050      -0.02140506       2.94533524       0.00000000
Si       0.72317826      -3.55994329      -1.28183643       0.00000000
Si       3.21145947      -0.72692496      -2.00515132       0.00000000
Si      -0.59767033       2.44973907       2.95928799       0.00000000
