10
Lattice="16.28999089631971 0.0 0.0 0.0 16.28999089631971 0.0 0.0 0.0 34.281931910070035" Properties=species:S:1:pos:R:3:initial_magmoms:R:1 pbc="T T T"
Si       2.33344476       0.18002079      -0.44737946       0.00000000
Si      -1.51324163       0.55372968      -1.76596615       0.00000000
Si      -0.54674127      -2.45723247       0.16126230       0.00000000
Si      -0.29828619       1.91741445       1.63692888       0.00000000
Si      -1.14441160      -0.00749340       3.12055029       0.00000000
Si      -2.97812870      -0.99512352       1.74776243       0.00000000
Si       0.62635050       3.53230731      -0.45457867       0.00000000
Si      -0.84348968       2.83094136      -2.16507662       0.00000000
Si       3.21286041      -1.11418713       1.46644474       0.00000000
Si       2.69226459       2.55840966      -0.82091560       0.00000000
