10
Lattice="16.28999089631971 0.0 0.0 0.0 16.28999089631971 0.0 0.0 0.0 34.281931910070035" Properties=species:S:1:pos:R:3:initial_magmoms:R:1 pbc="T T T"
Si      -1.70825641      -0.99452079       1.24890759       0.00000000
Si       1.12221158       1.72186929       1.24906872       0.00000000
Si      -1.57858801       0.84976785      -1.60845330       0.00000000
Si       1.82123992      -1.77539823      -0.24646567       0.00000000
Si      -0.32460102      -2.30106024       2.67016872       0.00000000
Si       2.74587661      -0.16050537      -2.33797322       0.00000000
Si       2.38363588       0.41938605       2.70239718       0.00000000
Si      -2.58361585      -2.70314631      -0.24886541       0.00000000
Si      -0.69894430       0.32286780      -3.85134995       0.00000000
Si       3.59180002      -0.96638796       1.29850329       0.00000000
