10
Lattice="16.28999089631971 0.0 0.0 0.0 16.28999089631971 0.0 0.0 0.0 34.281931910070035" Properties=species:S:1:pos:R:3:initial_magmoms:R:1 pbc="T T T"
Si       1.20816414      -1.38577401      -1.40389389       0.00000000
Si      -1.26142429       1.30248324      -1.45332846       0.00000000
Si      -1.35380163      -1.35459495       1.33653329       0.00000000
Si       1.36560699       1.36190916       1.33104817       0.00000000
Si       2.37477249       0.33101280      -2.52014267       0.00000000
Si       0.60253452       2.19543588      -2.64831295       0.00000000
Si      -2.38363588      -0.41938605      -2.70239718       0.00000000
Si      -0.56239596      -2.19478428      -2.94886285       0.00000000
Si      -2.70787760       0.00324171       2.69173309       0.00000000
Si       0.00721647      -2.70946683       2.69029325       0.00000000
