10
Lattice="16.28999089631971 0.0 0.0 0.0 16.28999089631971 0.0 0.0 0.0 34.281931910070035" Properties=species:S:1:pos:R:3:initial_magmoms:R:1 pbc="T T T"
Si      -1.43915960       0.80785368       1.60233839       0.00000000
Si       0.45035334       1.92573864      -1.23785269       0.00000000
Si       2.00948553      -0.69576219       0.97902396       0.00000000
Si      -1.26904964      -1.51159797      -1.29119541       0.00000000
Si      -3.48621380       0.62656227       0.41344033       0.00000000
Si       2.74069476       1.57319046      -1.75979539       0.00000000
Si       3.54193470      -0.39542346      -0.77494350       0.00000000
Si      -3.30985826      -0.39701988      -1.74412854       0.00000000
Si      -1.66619821      -3.42608022       0.00781628       0.00000000
Si       1.82057040      -2.97600381       1.56191997       0.00000000
