10
Lattice="16.28999089631971 0.0 0.0 0.0 16.28999089631971 0.0 0.0 0.0 34.281931910070035" Properties=species:S:1:pos:R:3:initial_magmoms:R:1 pbc="T T T"
Si      -1.43410644       0.84988188       1.69428259       0.00000000
Si       1.55382165       1.30642542      -1.28365338       0.00000000
Si       1.91326050       0.08299755       1.47696930       0.00000000
Si      -1.23952239      -1.66301352      -1.27306025       0.00000000
Si       0.10575468       2.35160811      -2.75990275       0.00000000
Si      -0.56738070      -0.11741832       3.63800065       0.00000000
Si      -2.59307804      -0.37118394      -2.74680705       0.00000000
Si      -1.19998656       3.15349965       1.75475595       0.00000000
Si       2.80973178      -0.34713990      -2.70950828       0.00000000
Si      -3.03306442      -2.62552446       0.04929745       0.00000000
