10
Lattice="16.28999089631971 0.0 0.0 0.0 16.28999089631971 0.0 0.0 0.0 34.281931910070035" Properties=species:S:1:pos:R:3:initial_magmoms:R:1 pbc="T T T"
Si      -1.48368017       1.65839760       0.49585414       0.00000000
Si      -1.29261313      -1.98470844       0.19362446       0.00000000
Si       1.76386491       0.34599960       1.60912622       0.00000000
Si       0.63654804       0.96959709      -2.11872742       0.00000000
Si       2.03561469      -0.81601497      -2.67440357       0.00000000
Si       1.64700045       2.84249164      -1.17035153       0.00000000
Si       2.81478168      -1.74819393       1.42475789       0.00000000
Si       3.04593678       1.97675145       0.45941243       0.00000000
Si      -0.29460465       3.66138017       0.06150182       0.00000000
Si       2.89056276      -2.19988305      -0.92907516       0.00000000
