10
Lattice="10.86 0.0 0.0 0.0 10.86 0.0 0.0 0.0 10.86" Properties=species:S:1:pos:R:3:initial_magmoms:R:1 pbc="T T T"
Si      -1.12674672       1.44714930      -1.18606404       0.00000000
Si       1.34011314       1.37668962       1.18280604       0.00000000
Si      -1.12674672      -1.26785070       1.52893596       0.00000000
Si       1.58825328      -1.26785070      -1.18606404       0.00000000
Si      -2.48424672       0.08964930      -2.54356404       0.00000000
Si      -2.48424672      -2.62535070       0.17143596       0.00000000
Si       0.23075328      -2.62535070      -2.54356404       0.00000000
Si      -2.48424672       2.80464930       0.17143596       0.00000000
Si       0.20459154       2.64942732       2.67268944       0.00000000
Si       0.26308350      -2.55528198       2.78957562       0.00000000
