10
Lattice="10.86 0.0 0.0 0.0 10.86 0.0 0.0 0.0 10.86" Properties=species:S:1:pos:R:3:initial_magmoms:R:1 pbc="T T T"
Si       1.56053856       1.42635240       1.02681300       0.00000000
Si      -1.15446144       1.42635240      -1.68818700       0.00000000
Si       1.56053856      -1.28864760      -1.68818700       0.00000000
Si      -2.39028600       0.15603648       2.30353632       0.00000000
Si       0.22487802      -2.60422800       2.33077320       0.00000000
Si       0.20303856       2.78385240       2.38431300       0.00000000
Si      -2.51196144       2.78385240      -0.33068700       0.00000000
Si       2.91803856       0.06885240       2.38431300       0.00000000
Si      -2.35701096       0.12609546      -3.00668874       0.00000000
Si       2.91803856      -2.64614760      -0.33068700       0.00000000
