10
Lattice="16.28999089631971 0.0 0.0 0.0 16.28999089631971 0.0 0.0 0.0 34.45770212530097" Properties=species:S:1:pos:R:3:initial_magmoms:R:1 pbc="T T T"
Si      -1.91764740       1.50799366      -0.03676639       0.00000000
Si      -0.26031420      -2.21573322       1.17700685       0.00000000
Si       0.09461232       0.22763646      -2.58505272       0.00000000
Si       1.89169254       1.10341522       1.55366420       0.00000000
Si       1.19035917      -0.60466851       3.05096388       0.00000000
Si       0.43072389       3.05537588       1.76275365       0.00000000
Si       0.43271127      -1.99032849      -3.19502330       0.00000000
Si      -3.45270527       1.02443316      -1.73470507       0.00000000
Si      -3.28459247       1.27771822       1.91556507       0.00000000
Si      -1.44492952       2.17120843       3.10987624       0.00000000
