10
Lattice="16.28999089631971 0.0 0.0 0.0 16.28999089631971 0.0 0.0 0.0 34.45770212530097" Properties=species:S:1:pos:R:3:initial_magmoms:R:1 pbc="T T T"
Si       0.76582548       1.66420106      -1.45821631       0.00000000
Si       1.33520985      -0.01430914       1.92635891       0.00000000
Si      -2.31145326       0.33620931       0.44295401       0.00000000
Si       0.33282099      -2.32537374      -0.53064891       0.00000000
Si      -0.86755653      -2.91112956       1.42858267       0.00000000
Si      -2.55911013      -1.38579912       2.05237080       0.00000000
Si       1.05147063      -2.24848494       2.65414045       0.00000000
Si       3.49905942       0.48988754       1.14609827       0.00000000
Si       2.65492791       0.69533702      -2.59504546       0.00000000
Si      -0.76147605      -2.67445215      -2.55738317       0.00000000
