10
Lattice="16.28999089631971 0.0 0.0 0.0 16.28999089631971 0.0 0.0 0.0 34.45770212530097" Properties=species:S:1:pos:R:3:initial_magmoms:R:1 pbc="T T T"
Si      -1.33520985       0.01430914      -1.92635891       0.00000000
Si      -0.28510758       1.22022363       1.98648764       0.00000000
Si       2.16384957       0.50419668      -0.78026064       0.00000000
Si      -0.28373922      -2.23417580       0.72778153       0.00000000
Si       1.12238100      -0.23008648       3.23185860       0.00000000
Si      -1.00238886      -2.31106460      -2.45700782       0.00000000
Si      -2.20276638      -2.89682042      -0.49777624       0.00000000
Si      -0.36637839      -2.04250766       3.03283081       0.00000000
Si       2.19825405       2.89512885      -0.81151380       0.00000000
Si      -0.56938437       1.67851020      -3.38457523       0.00000000
