10
Lattice="16.28999089631971 0.0 0.0 0.0 16.28999089631971 0.0 0.0 0.0 34.45770212530097" Properties=species:S:1:pos:R:3:initial_magmoms:R:1 pbc="T T T"
Si      -0.18296928      -2.09333898       1.04020969       0.00000000
Si      -2.18219211       0.07475481      -1.01798446       0.00000000
Si       1.85782563       0.61411182      -1.45297874       0.00000000
Si       0.13172094       1.79093726       1.78725309       0.00000000
Si      -2.54609442       2.30527772      -0.63743339       0.00000000
Si      -2.21747625       2.64547808       1.69680157       0.00000000
Si       2.03693418       3.11490701       1.06750021       0.00000000
Si      -2.15725212      -0.75508290      -3.21349264       0.00000000
Si       2.37229641       2.92540544      -1.23296619       0.00000000
Si      -1.63835046      -3.61431999      -0.00134385       0.00000000
