10
Lattice="16.28999089631971 0.0 0.0 0.0 16.28999089631971 0.0 0.0 0.0 34.45770212530097" Properties=species:S:1:pos:R:3:initial_magmoms:R:1 pbc="T T T"
Si      -0.85893912       2.00013507       1.25998104       0.00000000
Si      -1.42381116       0.90673398      -1.87608510       0.00000000
Si       2.47583565       0.50477823      -0.09823896       0.00000000
Si      -0.53848224      -1.70479737       1.80089835       0.00000000
Si       1.41115383      -2.31783894      -2.13375994       0.00000000
Si       0.58450149       3.74598324       0.65307719       0.00000000
Si      -1.63945818      -0.42283953       3.48322768       0.00000000
Si       2.79044442       2.67141339       0.92725728       0.00000000
Si      -2.21871429      -3.19660299       0.93597509       0.00000000
Si      -0.62032320       1.66478913       3.59345793       0.00000000
