10
Lattice="16.28999089631971 0.0 0.0 0.0 16.28999089631971 0.0 0.0 0.0 34.45770212530097" Properties=species:S:1:pos:R:3:initial_magmoms:R:1 pbc="T T T"
Si      -0.83984724      -1.69187940       1.37076261       0.00000000
Si       0.10865430      -0.83215836      -2.20705151       0.00000000
Si      -1.76551020       1.54135980       0.35429429       0.00000000
Si       2.15456427       0.97498908       0.21591208       0.00000000
Si      -2.07254412      -0.35601795      -2.90165026       0.00000000
Si      -1.56219471      -0.46576368       3.25056915       0.00000000
Si      -3.17519793       1.24040205      -1.53926087       0.00000000
Si       1.86849558       0.30654522      -3.27141607       0.00000000
Si       0.89407665      -3.13833366       1.96794938       0.00000000
Si       2.66752008       2.02271301      -1.92225845       0.00000000
