10
Lattice="16.28999089631971 0.0 0.0 0.0 16.28999089631971 0.0 0.0 0.0 34.45770212530097" Properties=species:S:1:pos:R:3:initial_magmoms:R:1 pbc="T T T"
Si       1.49741264       1.52814861       0.85699799       0.00000000
Si       0.31548191       0.23464116      -2.29547003       0.00000000
Si      -2.03949564       0.76220910       0.91433564       0.00000000
Si       0.52162372      -2.16764514       0.84972741       0.00000000
Si      -2.51395818      -1.86367374      -1.60476500       0.00000000
Si      -1.98342546      -0.49759434       2.88624766       0.00000000
Si       0.00398453      -1.76070465       3.06887358       0.00000000
Si       3.43061210       0.78669297      -0.37331495       0.00000000
Si      -1.44445452      -3.26902344       0.03366519       0.00000000
Si       2.64292544      -0.09083304      -2.48915688       0.00000000
