10
Lattice="16.28999089631971 0.0 0.0 0.0 16.28999089631971 0.0 0.0 0.0 34.45770212530097" Properties=species:S:1:pos:R:3:initial_magmoms:R:1 pbc="T T T"
Si      -0.40508343      -1.00087389      -2.08665623       0.00000000
Si       2.33491086       0.25282080      -0.18937964       0.00000000
Si      -1.03736349       2.24086869       0.08194046       0.00000000
Si      -0.73006893      -1.68427197       1.76420088       0.00000000
Si       2.61319293       0.22496490      -2.53136759       0.00000000
Si       2.78081703       2.47314780       0.53130361       0.00000000
Si      -2.56943799       2.02663890       1.90296212       0.00000000
Si       0.56573541       0.26469621      -3.73680205       0.00000000
Si      -2.57424354      -1.59448149      -2.40852581       0.00000000
Si       0.68763348       3.81992355       1.14602936       0.00000000
