10
Lattice="16.28999089631971 0.0 0.0 0.0 16.28999089631971 0.0 0.0 0.0 34.45770212530097" Properties=species:S:1:pos:R:3:initial_magmoms:R:1 pbc="T T T"
Si      -0.99421128      -1.77003882       1.16275789       0.00000000
Si       1.44153468      -1.51536096      -1.08345969       0.00000000
Si       1.83321144       0.96904323       1.29393844       0.00000000
Si      -1.69916103       1.74040731      -0.30860891       0.00000000
Si       0.41959782       2.22431805       2.64974984       0.00000000
Si       0.10249668       0.79680906      -3.40952817       0.00000000
Si      -2.29241025      -0.48220029       2.64442268       0.00000000
Si       2.37749292       0.08728182      -2.72840239       0.00000000
Si      -0.85680513       3.47377734       1.05615948       0.00000000
Si      -3.50852391       0.98916138       1.17073141       0.00000000
