10
Lattice="16.28999089631971 0.0 0.0 0.0 16.28999089631971 0.0 0.0 0.0 34.45770212530097" Properties=species:S:1:pos:R:3:initial_magmoms:R:1 pbc="T T T"
Si       1.35679410      -1.35812988      -1.35453303       0.00000000
Si       1.35666378       1.35746199       1.35811663       0.00000000
Si      -1.35850455      -1.35734796       1.35804772       0.00000000
Si      -1.35873261       1.35653346      -1.36139011       0.00000000
Si      -0.00560376      -2.70088200      -2.72206695       0.00000000
Si       2.70640431       0.00563634      -2.71673979       0.00000000
Si       2.71277370      -2.71187775       0.00048241       0.00000000
Si       2.71319724       0.00055386       2.71523399       0.00000000
Si      -0.00174303      -2.71446786       2.71461375       0.00000000
Si      -2.71505430      -2.71461447       0.00058578       0.00000000
