10
Lattice="16.28999089631971 0.0 0.0 0.0 16.28999089631971 0.0 0.0 0.0 34.45770212530097" Properties=species:S:1:pos:R:3:initial_magmoms:R:1 pbc="T T T"
Si      -0.22724550       1.65452643      -1.70310734       0.00000000
Si      -2.00547819       0.05111802       1.31693965       0.00000000
Si       0.06255360      -1.55062881      -1.85627191       0.00000000
Si       2.27957373       0.37076040       0.80920513       0.00000000
Si       2.21353407       1.74907359      -2.41390121       0.00000000
Si      -1.38088701      -3.29647698      -1.24936806       0.00000000
Si       2.26849653      -2.62519866      -1.58209182       0.00000000
Si       2.32857405       2.69314425       1.46290256       0.00000000
Si      -2.24492490      -2.03540292       2.44649822       0.00000000
Si      -1.64931363       1.36181142       3.27124378       0.00000000
