10
Lattice="16.28999089631971 0.0 0.0 0.0 16.28999089631971 0.0 0.0 0.0 34.45770212530097" Properties=species:S:1:pos:R:3:initial_magmoms:R:1 pbc="T T T"
Si       0.84235590       1.73337003       1.36476839       0.00000000
Si       1.69916103      -1.74040731       0.30860891       0.00000000
Si      -1.80936288      -0.75124593       1.47934031       0.00000000
Si      -0.29152584       0.40317750      -2.48619351       0.00000000
Si       2.11875885       0.48391074       2.95835875       0.00000000
Si       1.80165771      -0.94359825      -3.10091926       0.00000000
Si      -0.59324922      -2.22260760       2.95303159       0.00000000
Si       2.78107767       2.57657301       0.24946674       0.00000000
Si       0.70494975      -3.51044613       1.47136680       0.00000000
Si      -3.00441357      -2.45596185       0.38804326       0.00000000
