10
Lattice="16.28999089631971 0.0 0.0 0.0 16.28999089631971 0.0 0.0 0.0 34.45770212530097" Properties=species:S:1:pos:R:3:initial_magmoms:R:1 pbc="T T T"
Si      -0.51763918       0.40694049       2.21914617       0.00000000
Si      -0.52162372       2.16764514      -0.84972741       0.00000000
Si      -1.96607824      -1.10137830      -0.81606222       0.00000000
Si       2.27341774      -0.80429594      -0.26549674       0.00000000
Si      -2.50504918       1.67005080       2.03652025       0.00000000
Si      -1.11586500      -3.22943453      -1.45094573       0.00000000
Si      -0.61192082      -1.59413207       3.35008305       0.00000000
Si       3.64412350       1.14098418       0.08535178       0.00000000
Si       0.97578892       3.69579375       0.00727058       0.00000000
Si       2.25408151      -1.95089759      -2.41393567       0.00000000
