10
Lattice="16.28999089631971 0.0 0.0 0.0 16.28999089631971 0.0 0.0 0.0 34.45770212530097" Properties=species:S:1:pos:R:3:initial_magmoms:R:1 pbc="T T T"
Si       1.09429704       0.34907841       2.02673426       0.00000000
Si       0.47454399      -2.16368667      -0.81409813       0.00000000
Si      -2.36374416       0.26630892       0.26749529       0.00000000
Si       0.80137026       1.14767937      -2.01208972       0.00000000
Si      -1.29236715       2.17612150      -2.15660541       0.00000000
Si      -1.65271824      -2.08477791      -2.07383796       0.00000000
Si      -2.70943425       0.10945251      -2.10453979       0.00000000
Si       0.76147605       2.67445215       2.55738317       0.00000000
Si      -2.77060320       2.48615115       1.00571751       0.00000000
Si       2.91532356      -2.06913951      -1.52489200       0.00000000
