10
Lattice="16.28999089631971 0.0 0.0 0.0 16.28999089631971 0.0 0.0 0.0 34.45770212530097" Properties=species:S:1:pos:R:3:initial_magmoms:R:1 pbc="T T T"
Si      -0.47454399       2.16368667       0.81409813       0.00000000
Si       0.22724550      -1.65452643       1.70310734       0.00000000
Si      -2.12726223       0.07890876      -1.25973984       0.00000000
Si       2.44077957       0.09454716      -0.71079388       0.00000000
Si       0.28979910      -3.20515524      -0.15316457       0.00000000
Si       0.32682627       3.31136604      -1.19799160       0.00000000
Si      -1.52357112      -0.98394858      -3.17138530       0.00000000
Si       1.00551654       1.85650614      -3.10047131       0.00000000
Si       2.50681923      -1.28376603       2.51231247       0.00000000
Si       0.61975305       2.51276508       2.84083238       0.00000000
