10
Lattice="16.28999089631971 0.0 0.0 0.0 16.28999089631971 0.0 0.0 0.0 34.45770212530097" Properties=species:S:1:pos:R:3:initial_magmoms:R:1 pbc="T T T"
Si       1.40090742      -1.29226387       1.38359122       0.00000000
Si      -1.31202918       1.45742558       1.37067992       0.00000000
Si       1.81275120       0.70207456      -1.41280934       0.00000000
Si      -1.69108119      -1.14285134      -1.41494572       0.00000000
Si       0.42112908       0.05146500      -3.35684507       0.00000000
Si      -1.20469437       1.72445125      -2.99031829       0.00000000
Si       2.72031597       2.63270020       0.02006129       0.00000000
Si       0.04481379      -2.62470900       2.75838195       0.00000000
Si      -2.66813910       0.08879353       2.75238630       0.00000000
Si      -2.68596036       2.74764245      -0.18483122       0.00000000
