10
Lattice="16.28999089631971 0.0 0.0 0.0 16.28999089631971 0.0 0.0 0.0 34.45770212530097" Properties=species:S:1:pos:R:3:initial_magmoms:R:1 pbc="T T T"
Si      -1.35777150       1.35651717      -1.35653158       0.00000000
Si      -1.35615879      -1.35844265       1.35797880       0.00000000
Si       1.35847197       1.35654975       1.35797880       0.00000000
Si       1.36028016      -1.35864627      -1.36014964       0.00000000
Si      -2.71368594       2.71407690       0.00151614       0.00000000
Si       0.00167787       2.71376739       2.71537182       0.00000000
Si      -2.71394658      -0.00096111       2.71557856       0.00000000
Si       2.71710684       2.71319724       0.00048241       0.00000000
Si      -2.69861769       0.01093059      -2.73169099       0.00000000
Si      -2.71391400      -2.71730416      -0.00044795       0.00000000
