10
Lattice="16.28999089631971 0.0 0.0 0.0 16.28999089631971 0.0 0.0 0.0 34.45770212530097" Properties=species:S:1:pos:R:3:initial_magmoms:R:1 pbc="T T T"
Si       1.35513252      -1.35485843      -1.35484315       0.00000000
Si       1.35509994       1.35898782       1.35739302       0.00000000
Si      -1.35946566      -1.35580325       1.35746193       0.00000000
Si      -1.35782037       1.35864410      -1.36083879       0.00000000
Si       2.71181259      -2.71184801       0.00051687       0.00000000
Si       2.71319724       0.00153565       2.71471712       0.00000000
Si       0.01979235      -2.70639086      -2.72147773       0.00000000
Si      -0.00206883      -2.71346072       2.71457929       0.00000000
Si      -2.71648782      -2.71298831       0.00086144       0.00000000
Si      -0.00197109       2.71632926       2.71485495       0.00000000
