10
Lattice="16.28999089631971 0.0 0.0 0.0 16.28999089631971 0.0 0.0 0.0 34.45770212530097" Properties=species:S:1:pos:R:3:initial_magmoms:R:1 pbc="T T T"
Si       1.35635427       1.35640314       1.35694507       0.00000000
Si       1.35707103      -1.35734144      -1.35746193       0.00000000
Si      -1.35765747       1.35751086      -1.35756531       0.00000000
Si      -1.35856971      -1.35852573       1.35722073       0.00000000
Si      -2.71034649      -0.00032580       2.71664675       0.00000000
Si       0.00131949       2.71375110       2.71361447       0.00000000
Si      -2.71445157       2.71472850      -0.00017229       0.00000000
Si       0.00097740       2.71415835      -2.71506170       0.00000000
Si      -2.71453302      -2.71518359      -0.00013783       0.00000000
Si       2.71485882       2.71495656       0.00027566       0.00000000
