10
Lattice="16.28999089631971 0.0 0.0 0.0 16.28999089631971 0.0 0.0 0.0 34.45770212530097" Properties=species:S:1:pos:R:3:initial_magmoms:R:1 pbc="T T T"
Si      -1.35177678       1.35819993       1.35942602       0.00000000
Si      -1.35596331      -1.35665786      -1.35735856       0.00000000
Si       1.35705474      -1.35618782       1.36070096       0.00000000
Si       1.35856971       1.35852573      -1.35722073       0.00000000
Si      -0.00500103      -2.69212028       2.71209833       0.00000000
Si       0.02011815       2.69388219       2.71533736       0.00000000
Si      -2.70415629      -0.03352971       2.71103015       0.00000000
Si       0.00107514      -2.71360679      -2.71461375       0.00000000
Si      -2.71371852       0.00104419      -2.71478604       0.00000000
Si       2.71492398       2.71492887      -0.00027566       0.00000000
