10
Lattice="16.28999089631971 0.0 0.0 0.0 16.28999089631971 0.0 0.0 0.0 34.45770212530097" Properties=species:S:1:pos:R:3:initial_magmoms:R:1 pbc="T T T"
Si       0.32169492      -0.80651138      -2.21177222       0.00000000
Si       0.51372144       2.33546472      -0.07353278       0.00000000
Si       1.44267498      -0.64704857       1.81860962       0.00000000
Si      -2.34906687      -0.26043963       0.67871374       0.00000000
Si      -1.30759830       0.47384352      -3.33340551       0.00000000
Si      -2.05812747      -0.20004446       3.00474776       0.00000000
Si       0.52882227       2.79329517       2.32593065       0.00000000
Si      -0.11763009      -1.64435237       3.30659740       0.00000000
Si       3.24961065      -1.73051018       0.71265459       0.00000000
Si       0.23307732      -3.16531709      -2.23230902       0.00000000
