10
Lattice="16.28999089631971 0.0 0.0 0.0 16.28999089631971 0.0 0.0 0.0 34.45770212530097" Properties=species:S:1:pos:R:3:initial_magmoms:R:1 pbc="T T T"
Si      -0.29093940      -0.06039518      -2.32603402       0.00000000
Si       0.51447078       2.31129362       0.22001255       0.00000000
Si      -1.85782563      -0.61411182       1.45297874       0.00000000
Si       1.94049738      -1.44430791       0.30184964       0.00000000
Si       0.17910855       2.50079519       2.52047895       0.00000000
Si      -1.77969879      -1.87281636      -2.52506182       0.00000000
Si       2.05812747       0.20004446      -3.00474776       0.00000000
Si       3.50080245      -0.44700412      -1.18613814       0.00000000
Si      -1.72610469       1.17682544       3.24023183       0.00000000
Si       1.42716690      -3.64744896      -0.58667716       0.00000000
