10
Lattice="16.28999089631971 0.0 0.0 0.0 16.28999089631971 0.0 0.0 0.0 34.45770212530097" Properties=species:S:1:pos:R:3:initial_magmoms:R:1 pbc="T T T"
Si      -1.81089414      -0.79144150       1.45555070       0.00000000
Si       0.91140921       1.92617847       1.32346047       0.00000000
Si      -1.25519337       0.07636752      -2.26642217       0.00000000
Si       1.90628838      -1.96431531       0.09334597       0.00000000
Si       2.39267520       0.90298728      -1.48202660       0.00000000
Si       0.65001987       1.40033727      -2.98617505       0.00000000
Si      -0.45009270      -2.10159623       2.90096252       0.00000000
Si       2.28534039       0.63596160       2.87897161       0.00000000
Si       0.83274480      -3.54344057       1.53891771       0.00000000
Si       3.59736957      -0.82146397       1.50829169       0.00000000
