10
Lattice="16.28999089631971 0.0 0.0 0.0 16.28999089631971 0.0 0.0 0.0 34.45770212530097" Properties=species:S:1:pos:R:3:initial_magmoms:R:1 pbc="T T T"
Si       1.35503478      -1.35734796      -1.35666941       0.00000000
Si      -1.35843939       1.35817875      -1.35691061       0.00000000
Si      -1.33977105      -1.37839464       1.35894362       0.00000000
Si       1.36088289       1.35804843       1.38961099       0.00000000
Si      -0.21883986       2.49755022       2.82770399       0.00000000
Si      -2.71166598      -2.71407690       0.00303228       0.00000000
Si       2.71443528      -2.71191033       0.00382481       0.00000000
Si       2.71353933       0.00120546      -2.71333881       0.00000000
Si      -0.00131949      -2.71375110      -2.71361447       0.00000000
Si      -2.71577106       0.00097740      -2.71378676       0.00000000
