10
Lattice="16.28999089631971 0.0 0.0 0.0 16.28999089631971 0.0 0.0 0.0 34.45770212530097" Properties=species:S:1:pos:R:3:initial_magmoms:R:1 pbc="T T T"
Si      -1.50203574       1.11795012       1.37365706       0.00000000
Si      -1.37189493      -1.33568226      -1.35591134       0.00000000
Si       1.33977105       1.37839464      -1.35894362       0.00000000
Si       1.35400851      -1.35099486       1.52799320       0.00000000
Si       0.21393657       1.94305491       2.75034641       0.00000000
Si      -0.58948623      -2.32674957       2.77129670       0.00000000
Si      -2.39472774      -0.69395400       2.74638377       0.00000000
Si       2.11636422       0.38641509       3.09878288       0.00000000
Si      -0.02011815      -2.69388219      -2.71533736       0.00000000
Si       2.69480583       0.02104668      -2.71561302       0.00000000
