10
Lattice="16.28999089631971 0.0 0.0 0.0 16.28999089631971 0.0 0.0 0.0 34.45770212530097" Properties=species:S:1:pos:R:3:initial_magmoms:R:1 pbc="T T T"
Si       1.33288038       1.38443823       1.44274479       0.00000000
Si       1.57972275      -1.13950179      -1.43809300       0.00000000
Si      -1.15759998       1.57553622      -1.42851376       0.00000000
Si      -0.90699462      -1.93288995       1.28158603       0.00000000
Si      -2.49688233       0.22193496      -2.82356906       0.00000000
Si       0.21883986      -2.49755022      -2.82770399       0.00000000
Si      -2.62296693      -2.75799474      -0.09510331       0.00000000
Si       2.91103929      -2.52876186       0.10978230       0.00000000
Si      -2.61786816       2.94249528       0.12759694       0.00000000
Si       0.99543303      -3.48952977       1.63002251       0.00000000
