10
Lattice="16.28999089631971 0.0 0.0 0.0 16.28999089631971 0.0 0.0 0.0 34.45770212530097" Properties=species:S:1:pos:R:3:initial_magmoms:R:1 pbc="T T T"
Si      -1.83935277       1.35003375       0.44643424       0.00000000
Si       0.79716744      -1.55895300       1.54846108       0.00000000
Si      -1.54210914      -1.48841730      -0.97656628       0.00000000
Si       1.45459926       1.61357337      -1.01974181       0.00000000
Si       1.63730790      -3.02813181      -0.09568909       0.00000000
Si      -2.36962485       1.69409484      -1.85000060       0.00000000
Si      -2.79510336      -1.99174572       1.03635043       0.00000000
Si      -0.29888892       2.72056032      -2.43695343       0.00000000
Si      -0.06748947      -3.13124751      -1.97032697       0.00000000
Si      -1.04032827       3.06620154       1.79559186       0.00000000
