10
Lattice="16.28999089631971 0.0 0.0 0.0 16.28999089631971 0.0 0.0 0.0 34.45770212530097" Properties=species:S:1:pos:R:3:initial_magmoms:R:1 pbc="T T T"
Si      -0.37649448      -1.34894232      -1.84862229       0.00000000
Si       1.54590471      -1.34161182       1.13818441       0.00000000
Si      -1.44153468       1.51536096       1.08345969       0.00000000
Si       0.93595824       1.60264278      -1.64494270       0.00000000
Si       1.82312793      -0.47003166      -2.32255379       0.00000000
Si      -2.43574596      -0.25467786       2.24621758       0.00000000
Si       0.39167676       2.48440419       2.37739812       0.00000000
Si       2.83410162      -1.96895601      -0.69718308       0.00000000
Si      -1.78494417       0.09184302      -3.04675172       0.00000000
Si      -1.33903800       2.31217002      -2.32606848       0.00000000
