10
Lattice="16.28999089631971 0.0 0.0 0.0 16.28999089631971 0.0 0.0 0.0 34.45770212530097" Properties=species:S:1:pos:R:3:initial_magmoms:R:1 pbc="T T T"
Si       1.35751086       1.35632169       1.35759976       0.00000000
Si       1.35708732      -1.35726651      -1.35728965       0.00000000
Si      -1.35746199       1.35729909      -1.35715181       0.00000000
Si      -1.35738054      -1.35806472       1.35694507       0.00000000
Si       2.71368594       0.00089595      -2.71478604       0.00000000
Si       2.71459818      -2.71503801       0.00051687       0.00000000
Si       0.00027693       2.71534752      -2.71437254       0.00000000
Si       2.71463076       2.71523349       0.00003446       0.00000000
Si      -2.71471221      -2.71526607       0.00006892       0.00000000
Si       0.00105885      -2.71624347       2.71385568       0.00000000
