10
Lattice="16.28999089631971 0.0 0.0 0.0 16.28999089631971 0.0 0.0 0.0 34.45770212530097" Properties=species:S:1:pos:R:3:initial_magmoms:R:1 pbc="T T T"
Si      -1.33891420      -1.35233064       1.37229598       0.00000000
Si       1.37793852       1.36348929       1.36540444       0.00000000
Si       1.41573132      -1.30251582      -1.38877022       0.00000000
Si      -1.43989102       1.37538099      -1.37720276       0.00000000
Si       2.01363948       0.66388266      -2.64305540       0.00000000
Si       0.31912110       2.50053129      -2.56188024       0.00000000
Si      -2.67353828      -2.71388142       0.01931355       0.00000000
Si      -2.69547824      -0.15381018      -2.70158721       0.00000000
Si      -2.69271718       0.00506619       2.72600203       0.00000000
Si       0.01780497      -2.70933651       2.72538179       0.00000000
