10
Lattice="16.28999089631971 0.0 0.0 0.0 16.28999089631971 0.0 0.0 0.0 34.45770212530097" Properties=species:S:1:pos:R:3:initial_magmoms:R:1 pbc="T T T"
Si      -1.36239786      -1.35151614      -1.35779617       0.00000000
Si      -1.35479043       1.35891180       1.36014964       0.00000000
Si       1.36026387      -1.35641943       1.35952940       0.00000000
Si       1.38148974       1.36550925      -1.36218953       0.00000000
Si       0.05121576      -2.60679096      -2.71360758       0.00000000
Si      -0.09260865       2.61977409      -2.72331088       0.00000000
Si      -2.70954828       2.71668330       0.00110265       0.00000000
Si       2.71448415      -2.71262709       0.00258433       0.00000000
Si      -2.71200807      -2.71528236       0.00441059       0.00000000
Si      -2.71213839       0.00030951       2.71706025       0.00000000
