10
Lattice="16.28999089631971 0.0 0.0 0.0 16.28999089631971 0.0 0.0 0.0 34.45770212530097" Properties=species:S:1:pos:R:3:initial_magmoms:R:1 pbc="T T T"
Si       1.35522615      -1.35498966      -1.35604917       0.00000000
Si      -1.35785284      -1.35639060       1.35680724       0.00000000
Si       1.35698710       1.35866111       1.35684169       0.00000000
Si      -1.35470887       1.35658577      -1.36139011       0.00000000
Si       0.02148662       2.71209296      -2.70689522       0.00000000
Si       0.00878042      -2.69801871      -2.72322129       0.00000000
Si       2.71400275      -2.71204440      -0.00192963       0.00000000
Si      -0.00104188      -2.71357566       2.71402797       0.00000000
Si       2.71429597       0.00156712       2.71395905       0.00000000
Si      -2.71676464      -2.71204440      -0.00017229       0.00000000
