10
Lattice="16.28999089631971 0.0 0.0 0.0 16.28999089631971 0.0 0.0 0.0 34.45770212530097" Properties=species:S:1:pos:R:3:initial_magmoms:R:1 pbc="T T T"
Si      -1.34358291      -1.38152232      -1.28651349       0.00000000
Si       1.55911590       1.29150378      -1.15209391       0.00000000
Si      -0.11551239      -0.25479189       2.31679935       0.00000000
Si      -2.59465491       0.02725317      -2.64452674       0.00000000
Si       0.14286330       2.71493768      -2.61148179       0.00000000
Si       0.12520494      -2.71697652      -2.62426560       0.00000000
Si      -2.40617961      -0.20820249       2.93352365       0.00000000
Si       2.82830238      -0.00283446      -2.64680095       0.00000000
Si      -3.24216612      -2.14281918       0.02336234       0.00000000
Si       0.11160279      -2.52662787       2.99227407       0.00000000
