10
Lattice="16.28999089631971 0.0 0.0 0.0 16.28999089631971 0.0 0.0 0.0 34.45770212530097" Properties=species:S:1:pos:R:3:initial_magmoms:R:1 pbc="T T T"
Si      -0.17629038       2.31783635       0.09551680       0.00000000
Si      -1.87721073      -1.10817612       0.86206327       0.00000000
Si       1.82913894      -1.02804561       1.15292090       0.00000000
Si      -0.75849498      -0.05328459      -2.41552073       0.00000000
Si       1.53217224      -0.09987399      -3.03224502       0.00000000
Si       0.89363682      -0.45792819       3.31472942       0.00000000
Si       2.12551920       2.80532438      -0.17122042       0.00000000
Si      -1.39390272      -1.09384092       3.19560908       0.00000000
Si       1.75928742      -2.37170997      -2.35677031       0.00000000
Si       2.30524677      -3.01159746      -0.06271305       0.00000000
