10
Lattice="16.28999089631971 0.0 0.0 0.0 16.28999089631971 0.0 0.0 0.0 34.45770212530097" Properties=species:S:1:pos:R:3:initial_magmoms:R:1 pbc="T T T"
Si      -1.35609363      -1.33244513       1.37479072       0.00000000
Si      -1.40090742       1.29226387      -1.38359122       0.00000000
Si       1.36264221       1.37919546       1.36893291       0.00000000
Si       1.43182584      -1.34006885      -1.47394282       0.00000000
Si       0.41184378       1.99433844      -2.79640057       0.00000000
Si       2.32186257       0.57986633      -2.57357106       0.00000000
Si      -2.69143380      -2.68397756       0.00815614       0.00000000
Si       2.72613150      -2.67540902       0.00710174       0.00000000
Si       0.00058644      -2.68943471       2.73015073       0.00000000
Si      -2.71122615       0.02241330       2.72963387       0.00000000
