10
Lattice="16.28999089631971 0.0 0.0 0.0 16.28999089631971 0.0 0.0 0.0 34.45770212530097" Properties=species:S:1:pos:R:3:initial_magmoms:R:1 pbc="T T T"
Si       1.35659862       1.35641943       1.35866795       0.00000000
Si      -1.35894438      -1.35900302       1.35839229       0.00000000
Si      -1.36158336       1.35827649      -1.35873687       0.00000000
Si       1.35982404      -1.36120869      -1.35970169       0.00000000
Si      -2.71503801       2.71249677       0.00079253       0.00000000
Si      -0.00115659       2.71329498       2.71612989       0.00000000
Si       2.71394337      -0.00175932       2.71561302       0.00000000
Si       2.71684063       2.71324611       0.00148168       0.00000000
Si      -2.71601541      -0.00166158       2.71585423       0.00000000
Si      -2.71404432      -2.71799084       0.00099927       0.00000000
