10
Lattice="16.28999089631971 0.0 0.0 0.0 16.28999089631971 0.0 0.0 0.0 34.45770212530097" Properties=species:S:1:pos:R:3:initial_magmoms:R:1 pbc="T T T"
Si       0.77480127       1.91750567       1.11718824       0.00000000
Si      -1.56030507      -0.99730379       1.48798778       0.00000000
Si       1.80693567      -1.08346160      -1.10595503       0.00000000
Si      -1.44267498       0.64704857      -1.81860962       0.00000000
Si      -0.91385271       3.44034374       0.50732103       0.00000000
Si      -0.92895354       2.98251329      -1.89214240       0.00000000
Si       0.56078325      -2.69460776      -2.40342607       0.00000000
Si      -0.20152359      -1.21578527       3.45562705       0.00000000
Si      -3.50080245       0.44700412       1.18613814       0.00000000
Si      -2.07363555      -3.20044484       0.59946098       0.00000000
