10
Lattice="16.28999089631971 0.0 0.0 0.0 16.28999089631971 0.0 0.0 0.0 34.45770212530097" Properties=species:S:1:pos:R:3:initial_magmoms:R:1 pbc="T T T"
Si      -1.62885339      -1.19922093      -1.12811168       0.00000000
Si      -1.46473164       1.16820477       1.45641417       0.00000000
Si       1.23989706      -1.55338182       1.43695590       0.00000000
Si       1.28976075       1.55962089      -1.63258414       0.00000000
Si      -0.34065648      -1.82656512      -2.96347917       0.00000000
Si       2.69294877       2.66492997      -0.01819368       0.00000000
Si      -0.11981295       2.52095895       2.82729394       0.00000000
Si       2.06694036      -1.40374188      -2.85383470       0.00000000
Si      -2.78308134       2.62679508       0.11110203       0.00000000
Si       2.59703325      -0.19575693       2.82277998       0.00000000
