10
Lattice="16.28999089631971 0.0 0.0 0.0 16.28999089631971 0.0 0.0 0.0 34.45770212530097" Properties=species:S:1:pos:R:3:initial_magmoms:R:1 pbc="T T T"
Si      -1.35503478       1.35734796       1.35666941       0.00000000
Si      -1.35635427      -1.35640314      -1.35694507       0.00000000
Si       1.35850455       1.35855342      -1.35666941       0.00000000
Si       1.35940050      -1.35456237       1.36049421       0.00000000
Si      -2.69480583      -0.02104668       2.71561302       0.00000000
Si       0.00071676      -2.71374458      -2.71440700       0.00000000
Si       2.71412577      -2.71428215       0.00068915       0.00000000
Si      -2.71401174       0.00110772      -2.71451038       0.00000000
Si      -2.71347417       2.71552671      -0.00024120       0.00000000
Si      -2.71492398      -2.71492887       0.00027566       0.00000000
