10
Lattice="16.28999089631971 0.0 0.0 0.0 16.28999089631971 0.0 0.0 0.0 34.45770212530097" Properties=species:S:1:pos:R:3:initial_magmoms:R:1 pbc="T T T"
Si       1.32777414       1.37679822       1.29047612       0.00000000
Si       1.39970752      -1.28075238      -1.35680724       0.00000000
Si      -1.35454608       1.43498610      -1.34888196       0.00000000
Si      -0.77910183      -1.82019573       1.39943144       0.00000000
Si      -0.52898517      -0.41054058       3.29315889       0.00000000
Si       0.01708246      -2.63103048      -2.71206388       0.00000000
Si      -2.72186352      -2.66207922       0.21691136       0.00000000
Si      -2.69904123       0.08615781      -2.71816289       0.00000000
Si       2.66205383       2.76006357       0.00275662       0.00000000
Si       2.73087908       0.08430075      -2.72267686       0.00000000
