10
Lattice="16.28999089631971 0.0 0.0 0.0 16.28999089631971 0.0 0.0 0.0 34.45770212530097" Properties=species:S:1:pos:R:3:initial_magmoms:R:1 pbc="T T T"
Si       0.84704742      -1.52039457      -1.54804759       0.00000000
Si       0.64597995       2.15202303      -0.66858317       0.00000000
Si      -2.40759684      -0.42282324      -0.10964447       0.00000000
Si       1.88858382      -0.30840228       1.61072567       0.00000000
Si      -0.77717961       2.96336277       1.22125056       0.00000000
Si       0.49109463      -1.67821209       2.94466870       0.00000000
Si       2.97413765       1.43449740      -1.02063771       0.00000000
Si       0.94885992      -0.38509560      -3.58105315       0.00000000
Si      -2.06694036       1.40374188       2.85383470       0.00000000
Si       3.75890840      -0.57759453       0.01560935       0.00000000
