10
Lattice="16.28999089631971 0.0 0.0 0.0 16.28999089631971 0.0 0.0 0.0 34.45770212530097" Properties=species:S:1:pos:R:3:initial_magmoms:R:1 pbc="T T T"
Si      -1.43861877       1.19557197       1.48849431       0.00000000
Si       0.91867455       1.74702105      -1.35071998       0.00000000
Si      -1.40318802      -1.10530908      -1.61439046       0.00000000
Si       1.24945929      -1.48258548       1.47893229       0.00000000
Si      -2.63344140       2.63065581       0.12619107       0.00000000
Si      -0.88567101       3.43850949      -1.32112079       0.00000000
Si      -2.69294877      -2.66492997       0.01819368       0.00000000
Si       2.51816263      -2.84788296       0.09946910       0.00000000
Si       2.65760991       2.75362902       0.00182971       0.00000000
Si      -0.09679518       2.56787415       2.84262763       0.00000000
