10
Lattice="16.28999089631971 0.0 0.0 0.0 16.28999089631971 0.0 0.0 0.0 34.45770212530097" Properties=species:S:1:pos:R:3:initial_magmoms:R:1 pbc="T T T"
Si      -1.35659862      -1.35816246       1.35749639       0.00000000
Si       1.35868374       1.35671265       1.35749639       0.00000000
Si      -1.35918873       1.35824391      -1.35653158       0.00000000
Si       1.35765747      -1.35847197      -1.36104554       0.00000000
Si       0.01495422       2.69778690      -2.71352488       0.00000000
Si       2.70303228       0.01962945      -2.72308690       0.00000000
Si      -2.71340901       2.71445157       0.00041349       0.00000000
Si      -2.71368594      -0.00089595       2.71478604       0.00000000
Si       0.00094482       2.71433754       2.71482049       0.00000000
Si      -2.71296918      -2.71673217      -0.00003446       0.00000000
