10
Lattice="16.28999089631971 0.0 0.0 0.0 16.28999089631971 0.0 0.0 0.0 34.45770212530097" Properties=species:S:1:pos:R:3:initial_magmoms:R:1 pbc="T T T"
Si       1.22780988       0.41708916      -1.98376548       0.00000000
Si      -1.45459926      -1.61357337       1.01974181       0.00000000
Si       1.87574463       0.34257870       1.60428259       0.00000000
Si      -1.75348818       1.10698695      -1.41721162       0.00000000
Si      -0.05923044       1.54460151       2.56992578       0.00000000
Si      -3.29395203      -0.26353962       1.46617604       0.00000000
Si       0.41831091       3.49544304       1.28995926       0.00000000
Si       1.71584199       2.76698682      -1.87953087       0.00000000
Si      -0.35497539       1.04560623      -3.72615462       0.00000000
Si      -3.82422411       0.08052147      -0.83025880       0.00000000
