10
Lattice="16.28999089631971 0.0 0.0 0.0 16.28999089631971 0.0 0.0 0.0 34.45770212530097" Properties=species:S:1:pos:R:3:initial_magmoms:R:1 pbc="T T T"
Si       0.66668454      -2.20071384       0.73649934       0.00000000
Si      -1.93497507       1.20202281       0.96564318       0.00000000
Si      -1.87574463      -0.34257870      -1.60428259       0.00000000
Si       2.22380282       1.43125569      -0.23052216       0.00000000
Si       0.70094241       2.97417933      -1.33489213       0.00000000
Si      -1.45743372       3.15286434      -0.31432333       0.00000000
Si      -0.64793475       0.07451046      -3.58804807       0.00000000
Si      -1.19599551       1.28534616       3.25139613       0.00000000
Si      -0.84233961      -2.81830032       2.44536111       0.00000000
Si       2.76040307       1.77899832       2.09354778       0.00000000
