10
Lattice="16.28999089631971 0.0 0.0 0.0 16.28999089631971 0.0 0.0 0.0 34.45770212530097" Properties=species:S:1:pos:R:3:initial_magmoms:R:1 pbc="T T T"
Si      -0.91867455      -1.74702105       1.35071998       0.00000000
Si       1.73893536       1.00660797       1.35254968       0.00000000
Si      -1.80434556       1.69148844       0.02959918       0.00000000
Si       1.92593153      -0.05551632      -1.64246175       0.00000000
Si       2.97314396       1.95753672      -0.48885169       0.00000000
Si       0.35313462       2.19571281       2.83037933       0.00000000
Si      -2.32186257      -2.85233013      -0.26367048       0.00000000
Si      -2.35729332      -0.55144908       2.83921429       0.00000000
Si      -0.94117104       3.53105298       1.34933478       0.00000000
Si      -3.55211595       0.88363476       1.47691104       0.00000000
