10
Lattice="16.28999089631971 0.0 0.0 0.0 16.28999089631971 0.0 0.0 0.0 34.45770212530097" Properties=species:S:1:pos:R:3:initial_magmoms:R:1 pbc="T T T"
Si      -1.49741264      -1.52814861      -0.85699799       0.00000000
Si      -0.47368062       2.26090539      -0.54691295       0.00000000
Si       1.93319946      -0.74145564      -1.23031294       0.00000000
Si       0.00581553      -0.06431292       2.42265347       0.00000000
Si       2.17497564       0.52929468       2.74452305       0.00000000
Si      -1.18193072      -1.29350745      -3.15246801       0.00000000
Si       1.59733224       3.24084663       0.06257522       0.00000000
Si      -3.53690828      -0.76593951       0.05733765       0.00000000
Si       2.66833458      -2.55480957       0.07808120       0.00000000
Si       3.14579448       1.79486478       1.09437723       0.00000000
