10
Lattice="16.28999089631971 0.0 0.0 0.0 16.28999089631971 0.0 0.0 0.0 34.45770212530097" Properties=species:S:1:pos:R:3:initial_magmoms:R:1 pbc="T T T"
Si       1.35911398       1.35602847       1.35687615       0.00000000
Si      -1.35734193       1.35739683      -1.35763422       0.00000000
Si       1.35758109      -1.35793440      -1.35735856       0.00000000
Si      -1.35861255      -1.35765747       1.35687615       0.00000000
Si       2.71628926      -0.00128691       2.71140918       0.00000000
Si      -2.71363104       0.00057015       2.71592314       0.00000000
Si       0.00288379      -2.71529865      -2.71447592       0.00000000
Si       2.71521412       2.71464705      -0.00017229       0.00000000
Si       2.71511638      -2.71490769      -0.00031012       0.00000000
Si      -2.71508085       2.71502172      -0.00031012       0.00000000
