10
Lattice="16.28999089631971 0.0 0.0 0.0 16.28999089631971 0.0 0.0 0.0 34.45770212530097" Properties=species:S:1:pos:R:3:initial_magmoms:R:1 pbc="T T T"
Si       1.10265381      -1.59642000      -1.36238939       0.00000000
Si       1.40968773       0.30095775       1.89355516       0.00000000
Si       0.23944671       2.08652094      -1.12955856       0.00000000
Si      -2.18494512      -0.67214169       0.82784676       0.00000000
Si       0.59561127       3.39721434       0.82474556       0.00000000
Si      -3.31619765       1.45125981       0.49949913       0.00000000
Si       3.17519793      -1.24040205       1.53926087       0.00000000
Si       0.06454098      -0.26018388       3.75802801       0.00000000
Si      -2.39672001      -0.66174867      -2.94007062       0.00000000
Si      -1.73441259       3.12061014       1.45766499       0.00000000
