10
Lattice="16.28999089631971 0.0 0.0 0.0 16.28999089631971 0.0 0.0 0.0 34.45770212530097" Properties=species:S:1:pos:R:3:initial_magmoms:R:1 pbc="T T T"
Si       0.46214730      -2.12823963       0.75400386       0.00000000
Si      -0.44367232      -0.18120996      -2.29867459       0.00000000
Si       1.91921449       1.32457248       0.35904946       0.00000000
Si      -1.96481739       0.10767690       1.33661501       0.00000000
Si      -2.89481349      -1.76142141       0.02842762       0.00000000
Si      -1.07222313       2.10228966      -2.56582531       0.00000000
Si       0.60324313      -1.67891256       3.13489458       0.00000000
Si      -2.26688286      -1.72022400      -2.35652911       0.00000000
Si       1.15428496       3.30045174       1.43888553       0.00000000
Si       2.80744303       1.86046461      -1.73660024       0.00000000
