10
Lattice="16.28999089631971 0.0 0.0 0.0 16.28999089631971 0.0 0.0 0.0 34.45770212530097" Properties=species:S:1:pos:R:3:initial_magmoms:R:1 pbc="T T T"
Si      -1.35763141      -1.34877942       1.35822000       0.00000000
Si      -1.35870003       1.35685926      -1.35694507       0.00000000
Si       1.35674523      -1.35816246      -1.35942602       0.00000000
Si       1.34552142       1.35293337       1.38123776       0.00000000
Si       2.66405031      -0.14211396       2.67722712       0.00000000
Si      -0.13654278       2.65854429       2.75775482       0.00000000
Si       2.71373481      -0.00052128      -2.71619880       0.00000000
Si       2.71567332      -2.71497285      -0.00086144       0.00000000
Si      -0.00159642       2.71517536      -2.71623326       0.00000000
Si      -0.00125433      -2.71539639      -2.71609543       0.00000000
