10
Lattice="16.28999089631971 0.0 0.0 0.0 16.28999089631971 0.0 0.0 0.0 34.45770212530097" Properties=species:S:1:pos:R:3:initial_magmoms:R:1 pbc="T T T"
Si       1.21503363      -1.41713293       1.39884566       0.00000000
Si       1.34826954       1.35287473      -1.35680724       0.00000000
Si      -1.36568407      -1.35725089      -1.35777205       0.00000000
Si      -1.31412424       1.28230645       1.51010964       0.00000000
Si       2.29100442       0.32504089       2.40366727       0.00000000
Si      -2.15288218      -0.67478881       2.80220528       0.00000000
Si      -0.47613715      -2.48153782       2.70327716       0.00000000
Si       2.69709783      -2.72274385       0.02232860       0.00000000
Si       2.72422068       2.69790745       0.00975154       0.00000000
Si       2.70683925      -0.00358380      -2.71898988       0.00000000
