10
Lattice="16.28999089631971 0.0 0.0 0.0 16.28999089631971 0.0 0.0 0.0 34.45770212530097" Properties=species:S:1:pos:R:3:initial_magmoms:R:1 pbc="T T T"
Si       0.33809895      -2.21796495      -0.60997058       0.00000000
Si       2.02154013       0.94412835      -0.88935379       0.00000000
Si      -2.11208484       0.63845220      -0.99221009       0.00000000
Si      -0.09461232      -0.22763646       2.58505272       0.00000000
Si      -2.01225972       1.28035720       2.54828633       0.00000000
Si       0.75906513      -1.84150305      -2.93996725       0.00000000
Si       1.65763782       3.17465126      -0.50880271       0.00000000
Si       2.04648012       0.11429064      -3.08486196       0.00000000
Si      -3.54731759       0.79679670       0.85034765       0.00000000
Si       2.56538178      -2.74494645       0.12728682       0.00000000
