10
Lattice="16.28999089631971 0.0 0.0 0.0 16.28999089631971 0.0 0.0 0.0 34.376317263855086" Properties=species:S:1:pos:R:3:initial_magmoms:R:1 pbc="T T T"
Si      -2.25536679      -0.39101050      -0.30636191       0.00000000
Si       0.04877226       1.58488668       1.70908832       0.00000000
Si       1.02726369      -1.98523691       0.82860721       0.00000000
Si       0.69999759       1.40292738      -1.79695424       0.00000000
Si       2.39513499       2.00665107       1.88502641       0.00000000
Si      -1.14727212       3.39206670       0.72991275       0.00000000
Si       3.01110876       1.05205707      -1.79344785       0.00000000
Si       3.60882144       0.52928328       0.48484385       0.00000000
Si      -3.28660524      -1.00544228       1.71665111       0.00000000
Si       3.36882087      -1.82870630       0.56562824       0.00000000
