10
Lattice="16.28999089631971 0.0 0.0 0.0 16.28999089631971 0.0 0.0 0.0 34.376317263855086" Properties=species:S:1:pos:R:3:initial_magmoms:R:1 pbc="T T T"
Si      -1.35659862       1.35224919      -1.35786529       0.00000000
Si       1.35830907       1.35604476       1.35803717       0.00000000
Si      -1.35694071      -1.35892809       1.35844969       0.00000000
Si       1.35891180      -1.35871632      -1.36309049       0.00000000
Si      -2.71363707       2.71454931       0.00092816       0.00000000
Si       2.71653669       2.71257822       0.00037814       0.00000000
Si       0.00073305       2.71344159       2.71610872       0.00000000
Si      -2.71331127      -2.71658556       0.00055002       0.00000000
Si      -2.71484253      -0.00135207       2.71545557       0.00000000
Si       2.71551042      -0.00141723       2.71624623       0.00000000
