10
Lattice="16.28999089631971 0.0 0.0 0.0 16.28999089631971 0.0 0.0 0.0 34.376317263855086" Properties=species:S:1:pos:R:3:initial_magmoms:R:1 pbc="T T T"
Si      -1.22238531       1.48266693      -1.35222757       0.00000000
Si       1.51433469      -1.22166855      -1.35989349       0.00000000
Si      -1.05448428      -1.66796568       1.51695898       0.00000000
Si      -0.49142043       1.64693529       1.91331814       0.00000000
Si       1.01098998      -3.20579055       1.62861332       0.00000000
Si      -2.56013640       0.12818601      -2.71861819       0.00000000
Si       0.15457581      -2.58838326      -2.71545557       0.00000000
Si      -2.64813498      -2.66893731       0.06682760       0.00000000
Si       2.82352941       0.04903290       2.55636189       0.00000000
Si       2.77544133      -2.62501947      -0.00405641       0.00000000
