10
Lattice="16.28999089631971 0.0 0.0 0.0 16.28999089631971 0.0 0.0 0.0 34.376317263855086" Properties=species:S:1:pos:R:3:initial_magmoms:R:1 pbc="T T T"
Si      -0.07545528       0.74429010      -2.17873783       0.00000000
Si       2.20260348      -0.58784094       0.33850379       0.00000000
Si       0.18611325       1.88167419       1.40365457       0.00000000
Si      -1.06824933      -2.07959769       0.34946984       0.00000000
Si       0.25052391       0.70464024       3.45238110       0.00000000
Si       2.27155905      -0.40812966       2.72229646       0.00000000
Si       0.43447059      -1.24072785      -3.45471869       0.00000000
Si       2.52042138      -2.64738564      -0.66439146       0.00000000
Si      -2.30412276       1.33711578      -2.59716660       0.00000000
Si       0.99636156       2.91628467      -2.10871323       0.00000000
