10
Lattice="16.28999089631971 0.0 0.0 0.0 16.28999089631971 0.0 0.0 0.0 34.376317263855086" Properties=species:S:1:pos:R:3:initial_magmoms:R:1 pbc="T T T"
Si      -1.58899176      -0.73893069      -1.51585893       0.00000000
Si       1.57514526      -1.58403960       0.61550830       0.00000000
Si      -0.29559834       1.09450881       2.04659519       0.00000000
Si       1.40497992       1.21148730      -1.44772503       0.00000000
Si       2.91967299       1.97594442       0.22097109       0.00000000
Si       3.57490566      -0.26767728       0.23197152       0.00000000
Si       1.89641664       1.91721897       2.46148320       0.00000000
Si      -2.17598562       1.17486738      -2.78073623       0.00000000
Si       2.38539357      -0.54942912      -2.89685950       0.00000000
Si       1.38903201      -3.46571379      -0.78814627       0.00000000
