10
Lattice="16.28999089631971 0.0 0.0 0.0 16.28999089631971 0.0 0.0 0.0 34.376317263855086" Properties=species:S:1:pos:R:3:initial_magmoms:R:1 pbc="T T T"
Si       0.13722696      -1.30945536      -1.99984337       0.00000000
Si      -2.09207583       1.12057281      -0.71327461       0.00000000
Si       1.30655574       2.09070747      -0.27373877       0.00000000
Si      -0.58964913      -1.43444853       2.15383015       0.00000000
Si       2.00902941       1.12298373       2.38889898       0.00000000
Si      -1.79831826      -3.04165251       0.89120652       0.00000000
Si      -1.76906142      -2.89432575      -1.49468311       0.00000000
Si      -2.39661738       2.66910021       0.97322846       0.00000000
Si       0.39408768       3.36883716      -2.20259501       0.00000000
Si       0.07281630      -0.13242141      -4.04856990       0.00000000
