10
Lattice="16.28999089631971 0.0 0.0 0.0 16.28999089631971 0.0 0.0 0.0 34.376317263855086" Properties=species:S:1:pos:R:3:initial_magmoms:R:1 pbc="T T T"
Si       0.82165131       1.87742250      -1.23626729       0.00000000
Si      -1.66162887      -1.21674897      -1.22361680       0.00000000
Si      -1.26633573       1.34840475       1.55692834       0.00000000
Si       1.43956359      -1.34187246       1.54847176       0.00000000
Si       2.04154425      -1.79514171      -2.47058403       0.00000000
Si      -2.53879650       2.76863211       0.14958519       0.00000000
Si       2.68354944       2.72671794       0.15146901       0.00000000
Si      -2.72016936      -2.71780731       0.19904930       0.00000000
Si       2.74401792      -2.76286545       0.19205372       0.00000000
Si      -2.62571994       0.00112401       2.93064112       0.00000000
