10
Lattice="16.28999089631971 0.0 0.0 0.0 16.28999089631971 0.0 0.0 0.0 34.376317263855086" Properties=species:S:1:pos:R:3:initial_magmoms:R:1 pbc="T T T"
Si       1.13723748      -0.45791190      -2.01297513       0.00000000
Si      -2.34155718      -0.15653061       0.26297897       0.00000000
Si       0.24000057       2.35798957      -0.08078439       0.00000000
Si       0.93794562      -1.45002177       1.65305489       0.00000000
Si      -0.98455131      -2.68824096       2.10145983       0.00000000
Si      -2.45162871      -0.92693358       2.57681581       0.00000000
Si      -0.35771211       2.88076337      -2.35907609       0.00000000
Si      -0.04368978       0.80889624      -3.65272638       0.00000000
Si       2.43866187       2.75963093       0.67652630       0.00000000
Si       3.42598248       0.23988654      -1.58186150       0.00000000
