10
Lattice="16.28999089631971 0.0 0.0 0.0 16.28999089631971 0.0 0.0 0.0 34.376317263855086" Properties=species:S:1:pos:R:3:initial_magmoms:R:1 pbc="T T T"
Si       0.59450355      -1.72299330       1.41083923       0.00000000
Si       1.92249693       1.23821919      -0.44840493       0.00000000
Si      -1.46707740       1.76130738       0.47535598       0.00000000
Si      -1.38735414      -1.08766701      -1.55288225       0.00000000
Si      -1.35700587       2.53171035      -1.83848085       0.00000000
Si      -2.98646199      -1.75961322       0.07782803       0.00000000
Si      -3.40695576       0.47011311       0.84875175       0.00000000
Si       0.98455131       2.68824096      -2.10145983       0.00000000
Si      -2.30099508       0.64005039      -2.87100849       0.00000000
Si       1.57491720      -3.48390972      -0.03829524       0.00000000
