10
Lattice="16.28999089631971 0.0 0.0 0.0 16.28999089631971 0.0 0.0 0.0 34.376317263855086" Properties=species:S:1:pos:R:3:initial_magmoms:R:1 pbc="T T T"
Si      -2.24253353      -0.73805592      -0.29728656       0.00000000
Si       1.08066231       0.30880953      -2.10252549       0.00000000
Si       0.72413937      -1.47713322       1.72840782       0.00000000
Si       0.62113770       2.25214137       0.53809279       0.00000000
Si      -0.11538207       2.11598955      -3.08170106       0.00000000
Si       2.92646592       2.01717441       1.27536208       0.00000000
Si      -3.48992792       1.00463688      -1.14816964       0.00000000
Si      -2.25471519      -2.28151943      -2.09496270       0.00000000
Si      -3.04609479      -1.57939858       1.75546200       0.00000000
Si       0.11386710       3.71711736      -1.37116893       0.00000000
