10
Lattice="16.28999089631971 0.0 0.0 0.0 16.28999089631971 0.0 0.0 0.0 34.376317263855086" Properties=species:S:1:pos:R:3:initial_magmoms:R:1 pbc="T T T"
Si      -1.22616459       1.44279227       1.41183270       0.00000000
Si       1.49108886      -1.27085199       1.39527362       0.00000000
Si       1.08561447       1.84509011      -1.10936219       0.00000000
Si      -1.83058875      -0.95051173      -1.61053622       0.00000000
Si      -0.54410229       0.91159166      -3.57411256       0.00000000
Si      -2.54707182       2.73941111      -0.06764575       0.00000000
Si      -2.69962767      -2.61339234       0.00071503       0.00000000
Si      -2.57864184       0.09449992       2.77995589       0.00000000
Si       0.13952385      -2.62526775       2.77459318       0.00000000
Si       2.83486725      -2.58037251      -0.14255867       0.00000000
