10
Lattice="16.28999089631971 0.0 0.0 0.0 16.28999089631971 0.0 0.0 0.0 34.376317263855086" Properties=species:S:1:pos:R:3:initial_magmoms:R:1 pbc="T T T"
Si      -1.35571896       1.35089875       1.35721214       0.00000000
Si       1.35247725       1.34829235      -1.36812319       0.00000000
Si       1.35708732      -1.36168102       1.35618085       0.00000000
Si      -1.36702422      -1.35671821      -1.35774154       0.00000000
Si       2.57864184      -0.09449992      -2.77995589       0.00000000
Si      -2.71282257       2.71090198      -0.00721903       0.00000000
Si       2.71671588       2.70769285      -0.00319700       0.00000000
Si       0.00154755       2.71041328       2.71408052       0.00000000
Si      -2.71339272      -0.00435595       2.71397739       0.00000000
Si       2.71596654      -0.00397639       2.71383988       0.00000000
