10
Lattice="16.28999089631971 0.0 0.0 0.0 16.28999089631971 0.0 0.0 0.0 34.376317263855086" Properties=species:S:1:pos:R:3:initial_magmoms:R:1 pbc="T T T"
Si       1.35694071      -1.35678107      -1.35762466       0.00000000
Si       1.35615879       1.35809730       1.35772779       0.00000000
Si      -1.35747828       1.35760860      -1.35738402       0.00000000
Si      -1.35974259      -1.35854690       1.35734965       0.00000000
Si       2.71435383      -2.71430017       0.00013751       0.00000000
Si      -2.71474479      -0.00190593      -2.71425240       0.00000000
Si       2.71529865       0.00070047      -2.71418365       0.00000000
Si      -0.00193851      -2.71448570      -2.71528369       0.00000000
Si       2.71208952       0.00283446       2.71775879       0.00000000
Si      -2.71534752      -2.71454550       0.00055002       0.00000000
