10
Lattice="16.28999089631971 0.0 0.0 0.0 16.28999089631971 0.0 0.0 0.0 34.376317263855086" Properties=species:S:1:pos:R:3:initial_magmoms:R:1 pbc="T T T"
Si       0.85802688      -2.09937269       0.79402462       0.00000000
Si       1.76445135       0.58077108      -1.63266972       0.00000000
Si       0.47237742       1.49364639       1.98990861       0.00000000
Si      -2.06547426       1.53782487      -0.11165434       0.00000000
Si      -0.80829351      -2.19578516      -1.23517615       0.00000000
Si       0.50334471       1.98412200      -2.98850681       0.00000000
Si      -1.01098998       3.20579055      -1.62861332       0.00000000
Si       3.26435310       1.84795389      -0.29931476       0.00000000
Si      -2.21047155      -0.75485091      -2.95897754       0.00000000
Si       1.81253943       3.25482345       0.92774857       0.00000000
