10
Lattice="16.28999089631971 0.0 0.0 0.0 16.28999089631971 0.0 0.0 0.0 34.376317263855086" Properties=species:S:1:pos:R:3:initial_magmoms:R:1 pbc="T T T"
Si       0.14506245       0.65944038       2.16959372       0.00000000
Si       0.51043086       1.29802467      -1.88279195       0.00000000
Si       1.50350184      -1.81161320       0.25201292       0.00000000
Si      -2.23827858      -0.74397896       0.32602518       0.00000000
Si      -1.71232335      -2.48101817       1.80255758       0.00000000
Si       1.60588449      -0.38831288      -3.11109283       0.00000000
Si       2.34229023       1.28755020       2.38798659       0.00000000
Si      -1.27281915       2.55196371       2.19901987       0.00000000
Si       0.03249855      -3.63845525       0.73386603       0.00000000
Si      -3.09879783       1.05054699       1.79214155       0.00000000
