10
Lattice="16.28999089631971 0.0 0.0 0.0 16.28999089631971 0.0 0.0 0.0 34.376317263855086" Properties=species:S:1:pos:R:3:initial_magmoms:R:1 pbc="T T T"
Si      -1.53204192      -1.75360221       0.07095276       0.00000000
Si       2.14760844      -0.92533716       0.22320555       0.00000000
Si      -0.40213494       1.09587717       2.05525803       0.00000000
Si      -0.16705395       1.16093943      -2.05577367       0.00000000
Si       0.61548507      -0.58891608      -3.39174124       0.00000000
Si      -1.61515350      -2.27532204       2.34639122       0.00000000
Si       2.60982090      -1.22507316      -2.23951519       0.00000000
Si      -3.70110429      -0.86866425      -0.44393601       0.00000000
Si       1.42589628       2.92425048      -2.09100942       0.00000000
Si      -1.93297140      -0.21577734       3.34928646       0.00000000
