10
Lattice="16.28999089631971 0.0 0.0 0.0 16.28999089631971 0.0 0.0 0.0 34.376317263855086" Properties=species:S:1:pos:R:3:initial_magmoms:R:1 pbc="T T T"
Si       1.30445433      -1.42099299      -1.35641805       0.00000000
Si       1.36645407       1.34685720       1.37962551       0.00000000
Si      -1.35052245      -1.37127591       1.37625663       0.00000000
Si      -1.43956359       1.34187246      -1.54847176       0.00000000
Si      -2.70589932       2.69027721       0.00845658       0.00000000
Si       2.71466334       2.69278587      -0.00082503       0.00000000
Si      -2.70516627      -2.73321765      -0.00550021       0.00000000
Si       0.00786807       2.70003492       2.73948463       0.00000000
Si      -2.70669753      -0.01425375       2.73951901       0.00000000
Si       2.72352510      -0.01615968       2.73831583       0.00000000
