10
Lattice="16.28999089631971 0.0 0.0 0.0 16.28999089631971 0.0 0.0 0.0 34.376317263855086" Properties=species:S:1:pos:R:3:initial_magmoms:R:1 pbc="T T T"
Si      -1.32181947       1.36321236      -1.30217563       0.00000000
Si       0.82240065       1.73079621       1.31688870       0.00000000
Si       1.42692255      -1.36513458      -1.28471245       0.00000000
Si      -0.98891703      -0.54814221       2.77592355       0.00000000
Si       2.00459853       0.34572267       2.85131085       0.00000000
Si      -2.64860739       0.00301365      -2.65505635       0.00000000
Si      -2.74028751       2.58742215       0.20199535       0.00000000
Si       2.71769328       2.63101419       0.12537050       0.00000000
Si       0.06314004      -2.71272483      -2.65711893       0.00000000
Si       0.06647949       2.71619460      -2.65460946       0.00000000
