10
Lattice="16.28999089631971 0.0 0.0 0.0 16.28999089631971 0.0 0.0 0.0 34.376317263855086" Properties=species:S:1:pos:R:3:initial_magmoms:R:1 pbc="T T T"
Si       0.71426600       2.00886651       1.11620893       0.00000000
Si      -1.99174639      -0.72262440       1.14801391       0.00000000
Si       0.94425799       0.27852642      -2.31561997       0.00000000
Si       1.67554705      -1.85948721      -0.30446678       0.00000000
Si       2.05533211       0.58811787       2.52938918       0.00000000
Si      -0.68363163      -2.13144876       2.55045156       0.00000000
Si       3.40345993      -0.84628179       1.02197995       0.00000000
Si       0.69102180      -3.43824722       1.15092215       0.00000000
Si      -0.95136925       1.22608314      -3.41005940       0.00000000
Si       1.66536580      -2.10232224      -2.79761059       0.00000000
