10
Lattice="16.28999089631971 0.0 0.0 0.0 16.28999089631971 0.0 0.0 0.0 34.376317263855086" Properties=species:S:1:pos:R:3:initial_magmoms:R:1 pbc="T T T"
Si      -1.34820927      -1.34592867       1.38045054       0.00000000
Si       1.36847403       1.36392912       1.37770044       0.00000000
Si       1.35021294      -1.43410644      -1.39191161       0.00000000
Si      -1.47067749       1.37580453      -1.39617772       0.00000000
Si      -2.71466334      -2.69278587       0.00082503       0.00000000
Si       2.62379772      -0.05206284      -2.79408942       0.00000000
Si       2.73308733      -2.70293454       0.02080800       0.00000000
Si       2.72003904       2.71834488      -0.00161913       0.00000000
Si      -2.71671588       2.72697858       0.02532161       0.00000000
Si      -2.70679527       0.00724905       2.74030966       0.00000000
