10
Lattice="16.28999089631971 0.0 0.0 0.0 16.28999089631971 0.0 0.0 0.0 34.376317263855086" Properties=species:S:1:pos:R:3:initial_magmoms:R:1 pbc="T T T"
Si      -1.39214244       1.27589796       1.43961566       0.00000000
Si      -0.71426600      -2.00886651      -1.11620893       0.00000000
Si       1.34106610      -1.42074864       1.41318025       0.00000000
Si       0.77497231       1.83648573      -1.37550520       0.00000000
Si       2.58878236       2.64246606       0.06898987       0.00000000
Si      -2.70301503       2.64891690       0.07249969       0.00000000
Si      -2.70601239      -2.73149091       0.03180499       0.00000000
Si       0.22999199      -1.73034009      -3.43182890       0.00000000
Si      -0.02941485       2.64762999       2.79735032       0.00000000
Si       2.68515401      -0.07323984       2.79865662       0.00000000
