10
Lattice="16.28999089631971 0.0 0.0 0.0 16.28999089631971 0.0 0.0 0.0 34.376317263855086" Properties=species:S:1:pos:R:3:initial_magmoms:R:1 pbc="T T T"
Si       1.37376828      -0.90451854      -1.67759960       0.00000000
Si       0.20471643       2.38043231       0.29230199       0.00000000
Si      -2.28874500      -0.69779844      -0.43111364       0.00000000
Si       0.78304401      -0.97041159       2.09613149       0.00000000
Si      -0.98732061       2.51974439       2.25838780       0.00000000
Si       0.01073511       0.72662866       3.63701640       0.00000000
Si      -3.42598248      -0.23988654       1.58186150       0.00000000
Si       2.96520354       0.81034183      -2.22170825       0.00000000
Si      -0.59305374      -2.88982971       2.48492786       0.00000000
Si       1.96296129      -3.16801404      -1.10378979       0.00000000
