10
Lattice="16.28999089631971 0.0 0.0 0.0 16.28999089631971 0.0 0.0 0.0 34.376317263855086" Properties=species:S:1:pos:R:3:initial_magmoms:R:1 pbc="T T T"
Si      -0.52595523       1.73703921      -1.47653240       0.00000000
Si       1.74482190      -1.15743708      -1.06869155       0.00000000
Si      -1.88890695      -1.42386003       0.20622364       0.00000000
Si       0.57089934       1.27835516       2.33061248       0.00000000
Si       1.71232335       2.48101817      -1.80255758       0.00000000
Si      -2.16003771      -1.23382089       2.55412742       0.00000000
Si       3.21582519       0.66940497      -1.55054466       0.00000000
Si       1.85738580       3.14045855       0.36703614       0.00000000
Si      -1.38647448       3.53156516      -0.01041603       0.00000000
Si       0.89788851      -1.90687482      -3.16530431       0.00000000
