10
Lattice="16.28999089631971 0.0 0.0 0.0 16.28999089631971 0.0 0.0 0.0 34.376317263855086" Properties=species:S:1:pos:R:3:initial_magmoms:R:1 pbc="T T T"
Si      -1.35785295      -1.16105004      -1.44992512       0.00000000
Si      -1.38443823       1.36528608       1.31114785       0.00000000
Si       0.55951263      -2.08429151       1.16453277       0.00000000
Si       1.40014179       1.41674619      -1.44817193       0.00000000
Si       0.63682497       2.53907832       1.92830622       0.00000000
Si       2.04028082       0.74383887       2.59940106       0.00000000
Si       1.18381059      -1.31773298       3.33227018       0.00000000
Si      -2.53817748       2.80359534      -0.19384816       0.00000000
Si       0.11259648      -2.49659141      -2.86678020       0.00000000
Si       2.53553265      -2.87212478       0.02117582       0.00000000
