10
Lattice="16.28999089631971 0.0 0.0 0.0 16.28999089631971 0.0 0.0 0.0 34.376317263855086" Properties=species:S:1:pos:R:3:initial_magmoms:R:1 pbc="T T T"
Si      -1.45181367       1.40686956       1.22706333       0.00000000
Si      -1.49990175      -1.26718281      -1.33335496       0.00000000
Si       1.15373925      -1.43830926       1.50499601       0.00000000
Si       1.36080144       1.53266094      -1.25098926       0.00000000
Si      -2.79197568      -0.35430750       2.28922337       0.00000000
Si      -0.05686839      -2.59232218      -2.68462000       0.00000000
Si      -3.26435310      -1.84795389       0.29931476       0.00000000
Si       2.67548589       0.13194900      -2.67059445       0.00000000
Si       2.53817748      -2.80359534       0.19384816       0.00000000
Si       3.17500245      -0.26451702       2.12215438       0.00000000
