10
Lattice="16.28999089631971 0.0 0.0 0.0 16.28999089631971 0.0 0.0 0.0 34.376317263855086" Properties=species:S:1:pos:R:3:initial_magmoms:R:1 pbc="T T T"
Si      -2.30290101       0.49681242       0.21182699       0.00000000
Si       1.27182546       2.02489587       0.16342510       0.00000000
Si       1.27338930      -1.74675552       1.11637153       0.00000000
Si       0.57686148       0.59414517      -2.36564197       0.00000000
Si       2.59812468       1.76793741      -1.74848360       0.00000000
Si      -2.31337548       1.62421074       2.31108672       0.00000000
Si      -3.13145928      -1.88669412      -0.32471887       0.00000000
Si       3.14511030      -2.08887389      -0.34451964       0.00000000
Si      -0.31804596      -3.46161590       1.66048018       0.00000000
Si       2.20029030      -0.89895876       3.11810560       0.00000000
