10
Lattice="16.28999089631971 0.0 0.0 0.0 16.28999089631971 0.0 0.0 0.0 34.376317263855086" Properties=species:S:1:pos:R:3:initial_magmoms:R:1 pbc="T T T"
Si       1.32629922      -0.25695846      -1.91190871       0.00000000
Si      -1.21586931       1.99309779       0.42530403       0.00000000
Si       1.44845793       0.24874830       1.86883516       0.00000000
Si      -1.27182546      -2.02489587      -0.16342510       0.00000000
Si      -0.69496398      -1.43075070      -2.52906707       0.00000000
Si      -2.04455790       1.41869610       2.52587008       0.00000000
Si       2.72975507      -2.05219791      -1.24081387       0.00000000
Si       2.09820087       1.92218742      -2.39953704       0.00000000
Si      -0.05022207       0.78253902       3.67809612       0.00000000
Si       2.87417080       2.08182942       1.31107910       0.00000000
