10
Lattice="16.28999089631971 0.0 0.0 0.0 16.28999089631971 0.0 0.0 0.0 34.376317263855086" Properties=species:S:1:pos:R:3:initial_magmoms:R:1 pbc="T T T"
Si       1.32712905       1.34659656       1.36924386       0.00000000
Si       1.35209185      -1.35793440      -1.35576833       0.00000000
Si      -1.36184400       1.35513252      -1.35559645       0.00000000
Si      -1.35330804      -1.35342207       1.37941925       0.00000000
Si       2.47861214      -0.14582808       2.82360353       0.00000000
Si       2.71054916      -0.00042354      -2.71273984       0.00000000
Si      -0.00355817       2.71412577      -2.71273984       0.00000000
Si       2.71232477      -2.71511946       0.00580960       0.00000000
Si       2.71102157       2.71696023       0.00838783       0.00000000
Si      -0.00392050      -2.71539639      -2.71260233       0.00000000
