10
Lattice="16.28999089631971 0.0 0.0 0.0 16.28999089631971 0.0 0.0 0.0 34.376317263855086" Properties=species:S:1:pos:R:3:initial_magmoms:R:1 pbc="T T T"
Si      -1.25568207       1.39740507      -1.40389521       0.00000000
Si       1.75360940       0.88554069       1.32036071       0.00000000
Si      -1.57159404      -0.98297118       1.51249005       0.00000000
Si       1.43575077      -1.32975270      -1.40190138       0.00000000
Si      -2.55937077      -2.62905939       0.02787921       0.00000000
Si       0.02673189      -2.24709147       2.91339452       0.00000000
Si       0.58975894       2.45026035       2.78630520       0.00000000
Si      -2.67219531       2.66924682       0.01206609       0.00000000
Si      -2.61032589       0.03872133      -2.76784511       0.00000000
Si       2.58723386      -2.82217734       0.05245829       0.00000000
