10
Lattice="16.28999089631971 0.0 0.0 0.0 16.28999089631971 0.0 0.0 0.0 34.376317263855086" Properties=species:S:1:pos:R:3:initial_magmoms:R:1 pbc="T T T"
Si      -1.40359527       1.30215744      -1.42589606       0.00000000
Si       1.31468445      -1.40071194      -1.41960519       0.00000000
Si      -1.36080144      -1.53266094       1.25098926       0.00000000
Si       0.98777673       1.64608821       1.48461084       0.00000000
Si       2.55937077       2.62905939      -0.02787921       0.00000000
Si      -2.81261511      -0.12579138       2.47805259       0.00000000
Si      -0.05095512       2.66778072      -2.79572432       0.00000000
Si       2.66799249      -0.04728987      -2.79902444       0.00000000
Si      -2.83051782       2.66729202      -0.14118361       0.00000000
Si       2.58610266       0.38196792       2.88551531       0.00000000
