10
Lattice="16.28999089631971 0.0 0.0 0.0 16.28999089631971 0.0 0.0 0.0 34.376317263855086" Properties=species:S:1:pos:R:3:initial_magmoms:R:1 pbc="T T T"
Si       1.57159404       0.98297118      -1.51249005       0.00000000
Si      -0.98777673      -1.64608821      -1.48461084       0.00000000
Si       1.59832593      -1.26412029       1.40090446       0.00000000
Si      -1.81369602       1.36692648       1.22551640       0.00000000
Si       1.58390928       0.18471231       3.30879114       0.00000000
Si       0.31591197       2.38037625      -2.91638526       0.00000000
Si      -2.39137200      -0.34393077      -2.91050690       0.00000000
Si       3.32520344       1.86851187      -0.19212934       0.00000000
Si      -2.34857817      -3.17874915      -0.23362158       0.00000000
Si       0.82642428      -3.44326617       1.88853280       0.00000000
