10
Lattice="16.28999089631971 0.0 0.0 0.0 16.28999089631971 0.0 0.0 0.0 34.376317263855086" Properties=species:S:1:pos:R:3:initial_magmoms:R:1 pbc="T T T"
Si      -1.96033860       0.55260567       1.15325734       0.00000000
Si       0.79038658      -1.28919060       1.80272946       0.00000000
Si       1.14785760       2.07645372       0.16270320       0.00000000
Si       0.01441665      -1.44883260      -1.90788667       0.00000000
Si      -1.58390928      -0.18471231      -3.30879114       0.00000000
Si      -3.29965353      -1.37792223       0.91695440       0.00000000
Si      -1.19198817       1.29451743       3.26458317       0.00000000
Si       0.88103555       0.15257214       3.65681717       0.00000000
Si       0.57744370       3.24851922      -2.03497599       0.00000000
Si      -3.15716490       2.27369304       0.10625726       0.00000000
