10
Lattice="16.28999089631971 0.0 0.0 0.0 16.28999089631971 0.0 0.0 0.0 34.376317263855086" Properties=species:S:1:pos:R:3:initial_magmoms:R:1 pbc="T T T"
Si      -1.33975476       1.01328687      -1.60499677       0.00000000
Si      -0.82868859      -0.57440169       2.10056604       0.00000000
Si       1.33931493       1.93052790       0.23630294       0.00000000
Si       1.21586931      -1.99309779      -0.42530403       0.00000000
Si       2.66432724      -1.74434949       1.44353112       0.00000000
Si       1.16564724      -1.21055877       3.25279209       0.00000000
Si       3.29965353       1.37792223      -0.91695440       0.00000000
Si       0.14248863       3.65161527      -0.81069714       0.00000000
Si      -2.36933163      -2.39378292       1.72235759       0.00000000
Si      -2.08464759      -0.57866967      -3.23230379       0.00000000
