10
Lattice="16.28999089631971 0.0 0.0 0.0 16.28999089631971 0.0 0.0 0.0 34.376317263855086" Properties=species:S:1:pos:R:3:initial_magmoms:R:1 pbc="T T T"
Si      -2.14760844       0.92533716      -0.22320555       0.00000000
Si       0.32177637      -2.39249601       0.18363839       0.00000000
Si       0.46221246      -0.29973600      -2.46272075       0.00000000
Si       1.98959544       1.70142534       0.70832441       0.00000000
Si       2.47604742       0.91445544      -1.49482062       0.00000000
Si       1.99244619      -0.11490966       2.35312898       0.00000000
Si       2.52216441      -1.79473446       0.71351524       0.00000000
Si      -0.05593986      -2.63238255      -2.08719365       0.00000000
Si      -0.12002472      -0.44411427       3.54808482       0.00000000
Si      -2.54974338       2.02121433       1.83205248       0.00000000
