10
Lattice="16.28999089631971 0.0 0.0 0.0 16.28999089631971 0.0 0.0 0.0 34.376317263855086" Properties=species:S:1:pos:R:3:initial_magmoms:R:1 pbc="T T T"
Si      -1.63577664       0.25765893      -1.63497294       0.00000000
Si       0.79394202      -2.20766967       0.08105940       0.00000000
Si       1.49750712       1.81208331      -0.12286103       0.00000000
Si      -1.12617657       0.39280077       2.04367320       0.00000000
Si      -3.16661310      -1.05399558      -0.34094451       0.00000000
Si      -1.40905242       2.68895772       1.81152980       0.00000000
Si       1.32214527      -1.94038335       2.64484658       0.00000000
Si       2.90641293      -1.87846506      -1.11389643       0.00000000
Si       0.35447040       3.71398968       0.66006004       0.00000000
Si      -3.09765753      -0.87428430       2.04284817       0.00000000
