10
Lattice="16.28999089631971 0.0 0.0 0.0 16.28999089631971 0.0 0.0 0.0 34.376317263855086" Properties=species:S:1:pos:R:3:initial_magmoms:R:1 pbc="T T T"
Si      -0.79394202       2.20766967      -0.08105940       0.00000000
Si      -1.58040693      -1.75824486      -0.58718220       0.00000000
Si       2.11247091       0.32920461      -1.19495583       0.00000000
Si       0.52820325       0.26728632       2.56378717       0.00000000
Si       3.46907346       0.19865655       0.75982017       0.00000000
Si       0.12002472       0.44411427      -3.54808482       0.00000000
Si      -1.92011859       2.60047044       1.96261380       0.00000000
Si       2.53055376       1.49840307       2.49235315       0.00000000
Si      -2.42971866       2.46532860      -1.71603234       0.00000000
Si       0.44180109      -1.94838174      -3.36444643       0.00000000
