10
Lattice="16.28999089631971 0.0 0.0 0.0 16.28999089631971 0.0 0.0 0.0 34.376317263855086" Properties=species:S:1:pos:R:3:initial_magmoms:R:1 pbc="T T T"
Si       1.35179374      -1.36026387      -1.35961848       0.00000000
Si       1.35922035       1.33757190       1.37660039       0.00000000
Si      -1.36127385       1.35560493      -1.35992787       0.00000000
Si      -1.36283769      -1.35707103       1.36271235       0.00000000
Si      -0.19583838       2.52307665       2.72539033       0.00000000
Si       2.71248767      -2.71386513       0.00385015       0.00000000
Si       2.71141253       2.71554300       0.00168444       0.00000000
Si       2.71217816      -0.00140094      -2.71707126       0.00000000
Si      -0.00218720       2.71371852      -2.71686500       0.00000000
Si      -2.71748151      -2.71575477      -0.00123755       0.00000000
