10
Lattice="16.28999089631971 0.0 0.0 0.0 16.28999089631971 0.0 0.0 0.0 34.376317263855086" Properties=species:S:1:pos:R:3:initial_magmoms:R:1 pbc="T T T"
Si      -1.27982385      -1.23992964      -1.54205370       0.00000000
Si       1.30368870       1.36837629      -1.59533702       0.00000000
Si      -1.51650126       1.77023430       1.31331356       0.00000000
Si       1.98213040      -1.45891611       1.23218540       0.00000000
Si       3.14870129       0.64799991       1.23644807       0.00000000
Si       0.56988936       3.33120726       1.08312961       0.00000000
Si       2.54590938       2.54337399      -0.06022734       0.00000000
Si      -0.74106468      -0.30634974       3.74272363       0.00000000
Si      -3.17511648      -2.14014762      -0.35053550       0.00000000
Si       0.13668939      -2.51177139      -2.95801500       0.00000000
