10
Lattice="16.28999089631971 0.0 0.0 0.0 16.28999089631971 0.0 0.0 0.0 34.376317263855086" Properties=species:S:1:pos:R:3:initial_magmoms:R:1 pbc="T T T"
Si       1.19682630      -1.72108737       1.04700008       0.00000000
Si      -2.09453562       0.54920106       0.93214874       0.00000000
Si       1.01141352       2.12739255       0.36930498       0.00000000
Si      -0.24044040      -1.09147887      -2.18953200       0.00000000
Si      -1.48224339      -2.63832840      -0.79429963       0.00000000
Si      -1.29531564       1.04089842       3.05715636       0.00000000
Si      -0.14248863      -3.65161527       0.81069714       0.00000000
Si       3.21359346       1.66757472       1.05016270       0.00000000
Si       0.07270227       2.89527057       2.45625799       0.00000000
Si       1.96517673      -0.97917561       3.15832591       0.00000000
