10
Lattice="16.28999089631971 0.0 0.0 0.0 16.28999089631971 0.0 0.0 0.0 34.376317263855086" Properties=species:S:1:pos:R:3:initial_magmoms:R:1 pbc="T T T"
Si       0.54783270       1.33463970       1.84105908       0.00000000
Si      -1.59295023      -1.76331105       0.03523574       0.00000000
Si      -1.13454963       1.75374882      -1.15483865       0.00000000
Si       2.12594274      -0.26632521      -1.05366909       0.00000000
Si       1.36677987       3.09798333       0.27580135       0.00000000
Si       1.35759231      -1.00823697      -3.16499492       0.00000000
Si       3.00594483       1.93306914      -0.88752826       0.00000000
Si      -0.81041121      -3.51316656      -1.30073182       0.00000000
Si      -1.42589628      -2.92425048       2.09100942       0.00000000
Si      -2.97191502       2.53777023       0.04798937       0.00000000
