10
Lattice="16.28999089631971 0.0 0.0 0.0 16.28999089631971 0.0 0.0 0.0 34.376317263855086" Properties=species:S:1:pos:R:3:initial_magmoms:R:1 pbc="T T T"
Si      -0.68014008      -0.44264817       2.20623890       0.00000000
Si       1.55233895       1.80753840       0.45531458       0.00000000
Si      -1.43755992       1.16594046      -1.61108139       0.00000000
Si       0.72591498      -2.31686154      -0.42960108       0.00000000
Si       3.05118772      -1.51615917      -0.25245982       0.00000000
Si       3.17041586       0.85590918      -0.96346558       0.00000000
Si      -1.82317680       1.45925820       2.98915996       0.00000000
Si      -3.14947602       2.12571468      -0.29041129       0.00000000
Si      -2.17764720      -2.25473148       2.32909993       0.00000000
Si      -1.98539262      -0.16869924      -3.45214046       0.00000000
