10
Lattice="16.28999089631971 0.0 0.0 0.0 16.28999089631971 0.0 0.0 0.0 34.376317263855086" Properties=species:S:1:pos:R:3:initial_magmoms:R:1 pbc="T T T"
Si       1.15538454       0.99865845       1.77381896       0.00000000
Si      -1.76352282      -1.02503196       1.15146977       0.00000000
Si       1.14303672      -1.90190637      -0.78292106       0.00000000
Si      -0.48122289       1.84114467      -1.41396747       0.00000000
Si      -1.32629922       0.66645648      -3.27957125       0.00000000
Si       2.69149896      -2.19359511       1.07446677       0.00000000
Si      -3.53781333      -0.98210781      -0.31939054       0.00000000
Si       2.69488728       2.40808554       0.72451567       0.00000000
Si       2.07288621      -0.74187918       3.05210303       0.00000000
Si       1.53471348       3.20992821      -1.22775086       0.00000000
