10
Lattice="16.28999089631971 0.0 0.0 0.0 16.28999089631971 0.0 0.0 0.0 34.376317263855086" Properties=species:S:1:pos:R:3:initial_magmoms:R:1 pbc="T T T"
Si       1.53950274       1.40942709      -1.04930329       0.00000000
Si      -1.15538454      -0.99865845      -1.77381896       0.00000000
Si       0.91750167      -1.74053763       1.27828407       0.00000000
Si      -1.62230481       1.27731519       1.19749968       0.00000000
Si      -3.21414732      -0.68536917       1.40372332       0.00000000
Si      -2.91890736      -2.02369041      -0.62234920       0.00000000
Si       1.53611442      -3.19225356      -0.69935219       0.00000000
Si      -1.63660743       0.84248622      -3.18778643       0.00000000
Si       3.10856598      -0.08462655      -2.05766437       0.00000000
Si       0.37932894       2.21126976      -3.00156982       0.00000000
