10
Lattice="16.28999089631971 0.0 0.0 0.0 16.28999089631971 0.0 0.0 0.0 34.376317263855086" Properties=species:S:1:pos:R:3:initial_magmoms:R:1 pbc="T T T"
Si       1.35562122      -1.35840681       1.36185295       0.00000000
Si      -1.36107837       1.35808665       1.36154356       0.00000000
Si       1.35156501       1.35441576      -1.37931956       0.00000000
Si      -1.36847403      -1.36392912      -1.37770044       0.00000000
Si      -0.13952385       2.62526775      -2.77459318       0.00000000
Si      -2.71668330      -2.70985779       0.00275011       0.00000000
Si       2.71329498      -2.71536381       0.00467518       0.00000000
Si       2.71355562       2.71658297       0.00302512       0.00000000
Si       2.71318095       0.00050499       2.71916822       0.00000000
Si      -0.00161271      -2.71495656       2.71975261       0.00000000
