10
Lattice="16.28999089631971 0.0 0.0 0.0 16.28999089631971 0.0 0.0 0.0 34.376317263855086" Properties=species:S:1:pos:R:3:initial_magmoms:R:1 pbc="T T T"
Si      -1.44001971      -1.46088720      -1.25463800       0.00000000
Si      -1.34377839       1.30952052       1.53783229       0.00000000
Si       1.36288656      -1.39673718       1.53208800       0.00000000
Si       1.63275552       1.34598131      -1.34391335       0.00000000
Si       2.72762596      -2.67581169       0.03438321       0.00000000
Si      -2.83486725       2.58037251       0.14255867       0.00000000
Si       2.73975061       2.72286603       0.15657734       0.00000000
Si      -2.71360449      -2.84293080       0.14753980       0.00000000
Si      -0.15687270       0.74609829      -3.87387421       0.00000000
Si       0.01821222       2.67168773       2.92017697       0.00000000
