10
Lattice="16.28999089631971 0.0 0.0 0.0 16.28999089631971 0.0 0.0 0.0 34.376317263855086" Properties=species:S:1:pos:R:3:initial_magmoms:R:1 pbc="T T T"
Si       1.35723970       1.35800999      -1.35697151       0.00000000
Si       1.35786490      -1.35749457       1.35793404       0.00000000
Si      -1.35796698       1.35776718       1.35779654       0.00000000
Si      -1.35755973      -1.35891180      -1.35731527       0.00000000
Si       2.71289329      -0.00083079       2.71469929       0.00000000
Si      -0.00048870       2.71297637       2.71535244       0.00000000
Si      -2.71546155      -0.00185706       2.71394301       0.00000000
Si       2.71505660      -2.71507059       0.00027501       0.00000000
Si      -2.71479366      -2.71546155       0.00058440       0.00000000
Si       2.71499470       2.71529932       0.00037814       0.00000000
