10
Lattice="16.28999089631971 0.0 0.0 0.0 16.28999089631971 0.0 0.0 0.0 34.376317263855086" Properties=species:S:1:pos:R:3:initial_magmoms:R:1 pbc="T T T"
Si       1.35527913      -1.35226548       1.35979037       0.00000000
Si      -1.35705474      -1.35531171      -1.35652461       0.00000000
Si       1.35749457       1.35962424      -1.35614647       0.00000000
Si      -1.35423657       1.35927018       1.36240297       0.00000000
Si       0.00066789      -2.71360449      -2.71335861       0.00000000
Si       2.71423980      -2.71375110       0.00092816       0.00000000
Si      -2.71471221      -2.71360449       0.00137505       0.00000000
Si      -2.71480995       0.00221544      -2.71366800       0.00000000
Si       2.71546155       0.00185706      -2.71394301       0.00000000
Si       2.71497285       2.71483343       0.00140943       0.00000000
