10
Lattice="16.28999089631971 0.0 0.0 0.0 16.28999089631971 0.0 0.0 0.0 34.376317263855086" Properties=species:S:1:pos:R:3:initial_magmoms:R:1 pbc="T T T"
Si      -1.34368065      -1.35651717      -1.37360965       0.00000000
Si       1.37704257       1.35674688      -1.37440031       0.00000000
Si       1.18071549      -1.55053107       1.35284635       0.00000000
Si      -1.47044943       1.33554137       1.41685508       0.00000000
Si       2.42293617      -0.37553337       2.88795603       0.00000000
Si      -0.11259648       2.49659141       2.86678020       0.00000000
Si       2.72502445       2.68900889       0.00010313       0.00000000
Si      -2.70764235       2.70786456      -0.01168795       0.00000000
Si      -2.69781948      -2.71792134       0.00594711       0.00000000
Si      -2.69895978      -0.00425169      -2.73340002       0.00000000
