10
Lattice="16.28999089631971 0.0 0.0 0.0 16.28999089631971 0.0 0.0 0.0 34.376317263855086" Properties=species:S:1:pos:R:3:initial_magmoms:R:1 pbc="T T T"
Si      -1.46686563       1.25286390      -1.52761564       0.00000000
Si       2.08639062       1.56097296      -0.23018395       0.00000000
Si       1.51650126      -1.77023430      -1.31331356       0.00000000
Si      -1.84896387       0.47662911       1.92215285       0.00000000
Si       0.77543658      -2.07658404       2.42941008       0.00000000
Si       0.16902504       2.48421443      -2.84464184       0.00000000
Si      -2.60493390      -0.36685080      -2.83192260       0.00000000
Si       2.71068858       2.32753149       1.93755345       0.00000000
Si       2.82018996      -0.40185801      -2.90865058       0.00000000
Si      -0.75246768       0.95478948       3.94255328       0.00000000
