10
Lattice="16.28999089631971 0.0 0.0 0.0 16.28999089631971 0.0 0.0 0.0 34.376317263855086" Properties=species:S:1:pos:R:3:initial_magmoms:R:1 pbc="T T T"
Si      -1.09649619      -0.47816037      -2.02040042       0.00000000
Si      -1.37376828       0.90451854       1.67759960       0.00000000
Si       1.59143526       1.71486037      -0.54410865       0.00000000
Si       0.58919301      -2.26349550       0.57380981       0.00000000
Si      -2.37231270      -2.38715289      -1.32348895       0.00000000
Si       1.52790426      -3.03137352      -1.51314320       0.00000000
Si      -2.81341332       1.57492178      -1.98519906       0.00000000
Si      -0.59072427      -0.06589305       3.77373109       0.00000000
Si       0.31804596       3.46161590      -1.66048018       0.00000000
Si      -3.66251328       0.20672010       1.24648596       0.00000000
