10
Lattice="16.28999089631971 0.0 0.0 0.0 16.28999089631971 0.0 0.0 0.0 34.376317263855086" Properties=species:S:1:pos:R:3:initial_magmoms:R:1 pbc="T T T"
Si       0.22924917       1.60112781       1.71053213       0.00000000
Si      -2.31162919      -0.49412457      -0.13870852       0.00000000
Si       1.19604438      -1.80718002       0.97917557       0.00000000
Si       0.91686636       0.25252758      -2.20390131       0.00000000
Si       1.14727212      -3.39206670      -0.72991275       0.00000000
Si       0.73651977       0.13615182       3.61979385       0.00000000
Si       1.84726971      -1.98913932      -2.52686699       0.00000000
Si       0.11538207      -2.11598955       3.08170106       0.00000000
Si      -3.42066284       1.59783723      -0.27480443       0.00000000
Si      -2.46445057      -2.02479813      -2.11156647       0.00000000
