10
Lattice="16.28999089631971 0.0 0.0 0.0 16.28999089631971 0.0 0.0 0.0 34.376317263855086" Properties=species:S:1:pos:R:3:initial_magmoms:R:1 pbc="T T T"
Si       1.13264370      -0.63356697      -1.95652919       0.00000000
Si      -0.25264161       2.33764758       0.31189650       0.00000000
Si       1.16017380      -0.80184267       1.95226652       0.00000000
Si      -2.01593637      -1.36878354      -0.18621661       0.00000000
Si      -1.68257781       2.29052061       2.19637289       0.00000000
Si       1.84080227      -2.86164801      -1.30609453       0.00000000
Si       2.72923704      -2.29589631       0.94390545       0.00000000
Si      -0.29554947       0.23410359      -3.71931335       0.00000000
Si      -0.37932894      -2.21126976       3.00156982       0.00000000
Si      -1.53471348      -3.20992821       1.22775086       0.00000000
