10
Lattice="16.28999089631971 0.0 0.0 0.0 16.28999089631971 0.0 0.0 0.0 34.376317263855086" Properties=species:S:1:pos:R:3:initial_magmoms:R:1 pbc="T T T"
Si      -1.27358478      -1.38204360       1.40217780       0.00000000
Si      -0.89956638      -0.74267739      -2.09180007       0.00000000
Si       1.44001971       1.46088720       1.25463800       0.00000000
Si       1.28314701       2.20698549      -2.61923621       0.00000000
Si      -2.62379772       0.05206284       2.79408942       0.00000000
Si       0.10928961      -2.65087170       2.81489741       0.00000000
Si       0.72273843      -2.01999258      -3.28929976       0.00000000
Si       0.09624132       2.77040772       2.79247029       0.00000000
Si       2.80290627       0.06415002       2.78672601       0.00000000
Si      -2.00437047      -3.46457349       0.28258556       0.00000000
