10
Lattice="16.28999089631971 0.0 0.0 0.0 16.28999089631971 0.0 0.0 0.0 34.376317263855086" Properties=species:S:1:pos:R:3:initial_magmoms:R:1 pbc="T T T"
Si       1.10846934      -1.22212467      -1.68316856       0.00000000
Si      -2.17571195      -0.92035242       0.22495875       0.00000000
Si       0.66639132       0.55371339       2.21280478       0.00000000
Si      -0.31369653       2.17816848      -1.00647038       0.00000000
Si      -1.21860440      -0.56816262       3.05193115       0.00000000
Si       0.60119874       0.24285132      -3.59243029       0.00000000
Si      -3.11423165       0.37939410       1.95749173       0.00000000
Si      -1.21901980       3.52877238       0.72272810       0.00000000
Si       3.41379756      -1.45709163      -0.94589927       0.00000000
Si      -1.20989251       1.82723301      -3.19748056       0.00000000
