10
Lattice="16.28999089631971 0.0 0.0 0.0 16.28999089631971 0.0 0.0 0.0 34.376317263855086" Properties=species:S:1:pos:R:3:initial_magmoms:R:1 pbc="T T T"
Si       0.89619598       0.35093547       2.19101018       0.00000000
Si       1.81109125      -1.58438169      -0.39494973       0.00000000
Si      -2.32527274      -0.80070237      -0.17714126       0.00000000
Si       0.11922814       2.37206835      -0.71100577       0.00000000
Si       2.71391563       1.52205615       1.17439878       0.00000000
Si      -1.83882076      -1.58767227      -2.38028629       0.00000000
Si      -3.05118772       1.51615917       0.25245982       0.00000000
Si       3.38781664       0.13238883      -0.69505515       0.00000000
Si      -1.49884876       3.32369757       0.70777439       0.00000000
Si      -2.32242199      -2.61703737       1.46766331       0.00000000
