10
Lattice="16.28999089631971 0.0 0.0 0.0 16.28999089631971 0.0 0.0 0.0 34.376317263855086" Properties=species:S:1:pos:R:3:initial_magmoms:R:1 pbc="T T T"
Si       1.16657088       2.10691602       0.00426267       0.00000000
Si       1.16385045      -1.56471966      -1.46594449       0.00000000
Si       0.57041390      -1.17206550       2.19767919       0.00000000
Si      -1.98213040       1.45891611      -1.23218540       0.00000000
Si      -0.52101514       0.69274854       3.19139595       0.00000000
Si       1.07628845       2.20333653       2.36670764       0.00000000
Si       2.29685253       0.17176176      -2.72112767       0.00000000
Si      -0.58975894      -2.45026035      -2.78630520       0.00000000
Si       3.20348877       1.71805743      -1.22696020       0.00000000
Si      -0.57744370      -3.24851922       2.03497599       0.00000000
