10
Lattice="16.28999089631971 0.0 0.0 0.0 16.28999089631971 0.0 0.0 0.0 34.376317263855086" Properties=species:S:1:pos:R:3:initial_magmoms:R:1 pbc="T T T"
Si      -1.75360940      -0.88554069      -1.32036071       0.00000000
Si       1.13300208       1.73648142      -1.25518317       0.00000000
Si      -1.16385045       1.56471966       1.46594449       0.00000000
Si       1.77073929      -1.93880322       0.21925227       0.00000000
Si      -0.31785862      -2.21529339      -2.72226209       0.00000000
Si       2.43861300       0.50261166      -2.72535596       0.00000000
Si      -0.59343656       0.39265416       3.66362368       0.00000000
Si      -3.32520344      -1.86851187       0.19212934       0.00000000
Si       2.03963832       3.28277709       0.23898429       0.00000000
Si      -1.72687751      -3.13263216       1.59303381       0.00000000
