10
Lattice="16.28999089631971 0.0 0.0 0.0 16.28999089631971 0.0 0.0 0.0 34.376317263855086" Properties=species:S:1:pos:R:3:initial_magmoms:R:1 pbc="T T T"
Si       1.30561092      -1.23386976      -1.47017278       0.00000000
Si       0.90663624       1.54629567       1.49416746       0.00000000
Si      -1.13300208      -1.73648142       1.25518317       0.00000000
Si      -1.42023550       1.47002589      -1.45518470       0.00000000
Si      -1.13028165       1.93515426       2.72539033       0.00000000
Si      -2.29685253      -0.17176176       2.72112767       0.00000000
Si       2.47578678      -2.71293660       0.02557599       0.00000000
Si       2.46539376       2.83076217       0.02671041       0.00000000
Si      -0.06696819      -2.58141114      -2.82793494       0.00000000
Si       2.64956850       0.12981501      -2.83206010       0.00000000
