10
Lattice="16.28999089631971 0.0 0.0 0.0 16.28999089631971 0.0 0.0 0.0 34.376317263855086" Properties=species:S:1:pos:R:3:initial_magmoms:R:1 pbc="T T T"
Si       1.42157943       1.28489004       1.39079782       0.00000000
Si      -2.09703125       1.01582811      -0.49505362       0.00000000
Si      -0.48048984      -2.32217208       0.48274689       0.00000000
Si       1.29702609       0.09396072      -2.08303411       0.00000000
Si       3.11829696      -0.26158482       1.65436119       0.00000000
Si      -2.60290579      -2.35957392      -0.66408207       0.00000000
Si      -2.00674881       0.91940760      -2.85749859       0.00000000
Si       2.26808928      -2.11002741      -1.89138603       0.00000000
Si       2.22022926       2.98307367      -0.07136527       0.00000000
Si      -3.69433484      -0.49475988       0.32963469       0.00000000
