10
Lattice="16.28999089631971 0.0 0.0 0.0 16.28999089631971 0.0 0.0 0.0 34.376317263855086" Properties=species:S:1:pos:R:3:initial_magmoms:R:1 pbc="T T T"
Si       2.16029835       0.90013653       0.57559738       0.00000000
Si       0.32342166      -2.30332455      -0.65517860       0.00000000
Si      -1.01659374       0.14162526       2.24027147       0.00000000
Si      -1.56198946       0.67173444      -2.14525528       0.00000000
Si       2.45444688       2.32569072      -1.32861103       0.00000000
Si      -1.56157406      -3.42520056       0.18394778       0.00000000
Si       1.85575680       2.44866393       2.26210045       0.00000000
Si       0.50938830       3.74187816       0.73675364       0.00000000
Si       0.79721631       0.94760559       3.68476654       0.00000000
Si      -0.65666619      -0.67886946      -3.87445376       0.00000000
