10
Lattice="16.28999089631971 0.0 0.0 0.0 16.28999089631971 0.0 0.0 0.0 34.376317263855086" Properties=species:S:1:pos:R:3:initial_magmoms:R:1 pbc="T T T"
Si      -0.01419511       2.21708529       0.72406878       0.00000000
Si      -1.59730359      -1.51058799       0.82468831       0.00000000
Si       0.09028244      -0.09642051      -2.36244497       0.00000000
Si       2.09703125      -1.01582811       0.49505362       0.00000000
Si      -1.07628845      -2.20333653      -2.36670764       0.00000000
Si      -0.50587455      -3.37540203      -0.16902845       0.00000000
Si       2.20034243       3.01092957      -0.08229695       0.00000000
Si      -0.34563145       2.09259711       3.08957324       0.00000000
Si       1.61654141      -3.33800019       0.97780051       0.00000000
Si      -1.86423153       3.35334537      -0.34802603       0.00000000
