10
Lattice="16.28999089631971 0.0 0.0 0.0 16.28999089631971 0.0 0.0 0.0 34.376317263855086" Properties=species:S:1:pos:R:3:initial_magmoms:R:1 pbc="T T T"
Si       0.68440806      -0.02590110      -2.21971442       0.00000000
Si       1.71217674      -0.35455185       1.63046964       0.00000000
Si      -1.63243393      -1.80203238       0.05761474       0.00000000
Si      -0.47281725       2.35659285       0.47992803       0.00000000
Si      -2.10371829       1.60725285       2.10053166       0.00000000
Si      -3.20149718      -0.30797874       1.06597582       0.00000000
Si      -1.12817698       0.74091807      -3.54045327       0.00000000
Si       2.62428642       1.26529317      -2.59311019       0.00000000
Si       1.10490183      -2.25562743      -2.99063814       0.00000000
Si       3.30208074       1.38671883       1.55803870       0.00000000
