10
Lattice="16.28999089631971 0.0 0.0 0.0 16.28999089631971 0.0 0.0 0.0 34.376317263855086" Properties=species:S:1:pos:R:3:initial_magmoms:R:1 pbc="T T T"
Si      -0.52075872       1.72191816      -1.43562456       0.00000000
Si       0.98984556      -1.46984670      -1.49977081       0.00000000
Si       1.45904643       1.22232015       1.39877798       0.00000000
Si      -1.34647764      -1.46238588       1.29177132       0.00000000
Si      -2.44134809       2.55940712      -0.08652524       0.00000000
Si       2.33621406      -2.76306093       0.02557599       0.00000000
Si       3.08227977       2.11818870      -0.07284346       0.00000000
Si       0.02479338       2.53554344       2.79948994       0.00000000
Si       2.07876690       2.37021129      -2.26495368       0.00000000
Si      -2.71121705      -0.18331137       2.78947611       0.00000000
