10
Lattice="10.86 0.0 0.0 0.0 10.86 0.0 0.0 0.0 10.86" Properties=species:S:1:pos:R:3:initial_magmoms:R:1 pbc="T T T"
Si       1.21372446      -1.21372446      -1.29018972       0.00000000
Si      -1.48102164       1.48102164      -1.32693996       0.00000000
Si       2.64994860       0.06505140      -2.62977072       0.00000000
Si      -0.06505140      -2.64994860      -2.62977072       0.00000000
Si       2.64994860      -2.64994860       0.08522928       0.00000000
Si      -0.06505140       2.78005140      -2.62977072       0.00000000
Si      -2.78005140       0.06505140      -2.62977072       0.00000000
Si       2.64994860       2.78005140       0.08522928       0.00000000
Si      -2.78005140      -2.64994860       0.08522928       0.00000000
Si       2.64994860       0.06505140       2.80022928       0.00000000
