10
Lattice="10.86 0.0 0.0 0.0 10.86 0.0 0.0 0.0 10.86" Properties=species:S:1:pos:R:3:initial_magmoms:R:1 pbc="T T T"
Si       1.24255776       1.39814898      -1.30859742       0.00000000
Si       1.24255776      -1.31685102       1.40640258       0.00000000
Si      -1.47244224      -1.31685102      -1.30859742       0.00000000
Si       2.60005776       0.04064898      -2.66609742       0.00000000
Si       2.60005776      -2.67435102       0.04890258       0.00000000
Si      -0.11494224      -2.67435102      -2.66609742       0.00000000
Si       2.60005776       2.75564898       0.04890258       0.00000000
Si       2.60005776       0.04064898       2.76390258       0.00000000
Si      -0.11494224       2.75564898      -2.66609742       0.00000000
Si      -0.11494224      -2.67435102       2.76390258       0.00000000
