10
Lattice="16.28999089631971 0.0 0.0 0.0 16.28999089631971 0.0 0.0 0.0 34.51530692428229" Properties=species:S:1:pos:R:3:initial_magmoms:R:1 pbc="T T T"
Si      -1.35646830       1.35303111       1.36066319       0.00000000
Si       1.35843939      -1.36168110       1.36000740       0.00000000
Si       1.34724816       1.34908893      -1.38841351       0.00000000
Si      -1.36645407      -1.36023129      -1.38399210       0.00000000
Si       2.64702726      -0.16632090      -2.75782979       0.00000000
Si      -2.71480995       2.71099809       0.00106998       0.00000000
Si       0.00184077       2.71081890       2.71756421       0.00000000
Si       2.71850778       2.70990666      -0.00251962       0.00000000
Si      -2.71037907      -2.72042674      -0.00148416       0.00000000
Si      -2.71378368      -0.00374670       2.71808194       0.00000000
