10
Lattice="16.28999089631971 0.0 0.0 0.0 16.28999089631971 0.0 0.0 0.0 34.51530692428229" Properties=species:S:1:pos:R:3:initial_magmoms:R:1 pbc="T T T"
Si      -2.21698755       0.26553189      -0.66010561       0.00000000
Si       1.18324044       1.45521991      -1.40939883       0.00000000
Si       0.74945403      -2.05674838      -1.06752452       0.00000000
Si      -1.91480805       2.17056268       0.84655741       0.00000000
Si       0.98663643       1.06623100       2.88610255       0.00000000
Si       0.33337485      -1.41130600      -3.33670013       0.00000000
Si       3.53227473      -0.25521380       0.94592703       0.00000000
Si       3.04756578      -1.99408075      -0.51641831       0.00000000
Si       3.15516123       1.92446965      -0.19801443       0.00000000
Si      -0.60460335      -3.79538008      -0.21779171       0.00000000
