10
Lattice="16.28999089631971 0.0 0.0 0.0 16.28999089631971 0.0 0.0 0.0 34.51530692428229" Properties=species:S:1:pos:R:3:initial_magmoms:R:1 pbc="T T T"
Si       2.21698755      -0.26553189       0.66010561       0.00000000
Si      -0.48571893       0.43109530      -2.27217844       0.00000000
Si      -1.43386209      -1.45247571       1.19795794       0.00000000
Si       0.30217950       1.90503079       1.50666302       0.00000000
Si      -2.10093759       2.36439250       1.34896249       0.00000000
Si      -0.67826673      -3.54214062      -0.05049592       0.00000000
Si       3.40022799       1.18968802      -0.74929322       0.00000000
Si       0.29488158      -1.53035820      -3.34101455       0.00000000
Si       0.71035803       2.40273916      -2.79688043       0.00000000
Si      -0.53641341      -1.07330737       3.56491547       0.00000000
