10
Lattice="16.28999089631971 0.0 0.0 0.0 16.28999089631971 0.0 0.0 0.0 34.51530692428229" Properties=species:S:1:pos:R:3:initial_magmoms:R:1 pbc="T T T"
Si      -0.70692084      -1.85857727       1.18520940       0.00000000
Si       1.90736352       1.02160617       1.28027842       0.00000000
Si      -0.89744868      -0.37916834      -2.36695753       0.00000000
Si      -2.00601576      -0.24083366       2.74002130       0.00000000
Si       0.83859291       2.97833817      -2.05825245       0.00000000
Si       0.53641341       1.07330737      -3.56491547       0.00000000
Si       0.68543433       2.49118572       2.73991430       0.00000000
Si      -3.41251717       1.08999648       1.38288213       0.00000000
Si      -1.45749888      -3.67093751      -0.29220675       0.00000000
Si      -0.81127458       3.77426757       1.31144921       0.00000000
