10
Lattice="16.28999089631971 0.0 0.0 0.0 16.28999089631971 0.0 0.0 0.0 34.51530692428229" Properties=species:S:1:pos:R:3:initial_magmoms:R:1 pbc="T T T"
Si       1.13793795       1.53468090      -1.42254714       0.00000000
Si      -1.22776101       1.35669636       1.53347453       0.00000000
Si      -1.54953738      -1.28272347      -1.29276951       0.00000000
Si       1.47654189      -1.35291708       1.51979610       0.00000000
Si       1.65514545      -0.44647632      -2.65080954       0.00000000
Si      -2.52524322       2.73484665       0.06778810       0.00000000
Si       2.73447198       2.63378349       0.16763404       0.00000000
Si      -2.58551622       0.00899208       2.90927959       0.00000000
Si      -2.73386925      -2.77915545       0.09575242       0.00000000
Si       0.12929373      -2.70200601       2.90820961       0.00000000
