10
Lattice="16.28999089631971 0.0 0.0 0.0 16.28999089631971 0.0 0.0 0.0 34.51530692428229" Properties=species:S:1:pos:R:3:initial_magmoms:R:1 pbc="T T T"
Si       1.35513252      -1.35702216      -1.35935161       0.00000000
Si      -1.35984033       1.35694071      -1.35790196       0.00000000
Si      -1.36829484      -1.33892397       1.37636766       0.00000000
Si       1.34224713       1.36415718       1.39721492       0.00000000
Si       2.71350675       0.00076563      -2.71652875       0.00000000
Si      -2.71663443       2.71342530       0.00213995       0.00000000
Si       2.71699281      -2.71446786       0.00248510       0.00000000
Si      -0.00135207      -2.71458189      -2.71697745       0.00000000
Si      -0.00174303       2.71575477      -2.71621811       0.00000000
Si       2.71678104       2.71606428       0.00210543       0.00000000
