10
Lattice="16.28999089631971 0.0 0.0 0.0 16.28999089631971 0.0 0.0 0.0 34.51530692428229" Properties=species:S:1:pos:R:3:initial_magmoms:R:1 pbc="T T T"
Si      -0.48524652       2.26281132       0.34760385       0.00000000
Si      -1.65806136      -1.53482751      -0.72257835       0.00000000
Si       1.00466946      -0.41754528       2.15254832       0.00000000
Si       1.91912490       0.27953640      -2.05197066       0.00000000
Si       1.66382802      -3.05453790      -0.30780768       0.00000000
Si      -3.25979190      -1.03483854       1.15999108       0.00000000
Si       1.60474419       3.04013754       1.13331074       0.00000000
Si       2.50805727      -2.11571262       1.65283543       0.00000000
Si      -0.55930086      -3.71684043       0.19128394       0.00000000
Si      -0.24983973       3.27282390      -1.85064276       0.00000000
