10
Lattice="16.28999089631971 0.0 0.0 0.0 16.28999089631971 0.0 0.0 0.0 34.51530692428229" Properties=species:S:1:pos:R:3:initial_magmoms:R:1 pbc="T T T"
Si       1.35584928       1.34263809      -1.35582069       0.00000000
Si      -1.35782037       1.35348723       1.36104286       0.00000000
Si       1.35746199      -1.35988920       1.36000740       0.00000000
Si      -1.35804843      -1.37052657      -1.37525282       0.00000000
Si       2.60418456      -0.09343944      -2.74109331       0.00000000
Si      -2.71676475       2.71094922       0.00041418       0.00000000
Si       0.00086337       2.71151937       2.71746066       0.00000000
Si       2.71438641       2.71560816       0.00158771       0.00000000
Si      -2.71423980      -0.00312768       2.71735712       0.00000000
Si       2.71612944      -0.00293220       2.71742615       0.00000000
