10
Lattice="16.28999089631971 0.0 0.0 0.0 16.28999089631971 0.0 0.0 0.0 34.51530692428229" Properties=species:S:1:pos:R:3:initial_magmoms:R:1 pbc="T T T"
Si       1.24317135      -1.32690195       1.48835264       0.00000000
Si      -1.67223366      -1.04303241      -1.38559158       0.00000000
Si      -1.44712215       1.39434255       1.46225560       0.00000000
Si       1.92617847       0.75324960      -1.50449688       0.00000000
Si       2.58002649       2.66097150      -0.03454639       0.00000000
Si       2.49150663      -2.76297948       0.10308002       0.00000000
Si      -2.87248086       2.48122764      -0.09504140       0.00000000
Si      -2.76820857      -2.66191632       0.00323409       0.00000000
Si       2.60170848       0.04606812       2.84576103       0.00000000
Si      -0.38441142      -2.27225952      -3.11180659       0.00000000
