10
Lattice="16.28999089631971 0.0 0.0 0.0 16.28999089631971 0.0 0.0 0.0 34.51530692428229" Properties=species:S:1:pos:R:3:initial_magmoms:R:1 pbc="T T T"
Si      -1.35625653      -1.35578412      -1.35717714       0.00000000
Si      -1.35389448       1.35913986       1.36142253       0.00000000
Si       1.35881406       1.35944937      -1.35738423       0.00000000
Si       1.36226754      -1.35547461       1.36114640       0.00000000
Si      -2.71376739       0.00177561      -2.71487201       0.00000000
Si       0.00131949      -2.71350675      -2.71518265       0.00000000
Si      -2.71435383      -2.71459818       0.00113901       0.00000000
Si       2.71637379      -2.71375110      -0.00100094       0.00000000
Si       0.00133578       2.71642266      -2.71476847       0.00000000
Si       2.71660185       0.00197109      -2.71480298       0.00000000
