10
Lattice="16.28999089631971 0.0 0.0 0.0 16.28999089631971 0.0 0.0 0.0 34.51530692428229" Properties=species:S:1:pos:R:3:initial_magmoms:R:1 pbc="T T T"
Si       2.28809340      -0.07265340      -0.60577849       0.00000000
Si      -1.66952952       0.16377966      -1.67212949       0.00000000
Si      -0.41164830      -2.28948131       0.61606406       0.00000000
Si      -0.17107758       1.78074135       1.63216075       0.00000000
Si      -3.40754939      -0.85486662      -0.39571822       0.00000000
Si      -2.46878860       2.05205130       1.93848427       0.00000000
Si      -2.07942990       2.51631630      -1.89502947       0.00000000
Si       0.83913048       3.67549641       0.49954032       0.00000000
Si       0.78283224       0.93882528       3.63021847       0.00000000
Si       3.56869917       0.96260868       1.02258557       0.00000000
