10
Lattice="16.28999089631971 0.0 0.0 0.0 16.28999089631971 0.0 0.0 0.0 34.51530692428229" Properties=species:S:1:pos:R:3:initial_magmoms:R:1 pbc="T T T"
Si       1.06109802       1.90620693      -0.79430120       0.00000000
Si       0.05945850       0.22944465       2.31307910       0.00000000
Si      -2.30329197      -0.12320127      -0.44510965       0.00000000
Si       1.05005340      -1.24537050      -1.77415680       0.00000000
Si       0.98328069       0.87379560      -2.90197960       0.00000000
Si       3.05347905       1.12747977       0.21692883       0.00000000
Si      -1.56587625      -1.43047377       2.49811577       0.00000000
Si      -2.13710139      -2.25939042      -1.35055020       0.00000000
Si      -1.49467266      -3.09804849       0.77970122       0.00000000
Si      -2.87282295       1.71967014      -1.69549637       0.00000000
