10
Lattice="16.28999089631971 0.0 0.0 0.0 16.28999089631971 0.0 0.0 0.0 34.51530692428229" Properties=species:S:1:pos:R:3:initial_magmoms:R:1 pbc="T T T"
Si      -1.13793795      -1.53468090       1.42254714       0.00000000
Si       0.51720750      -1.98115722      -1.22826240       0.00000000
Si       1.59653403       1.09910259       1.59018117       0.00000000
Si      -1.27938402       1.58982255      -1.62470544       0.00000000
Si       2.58646104       2.71841004       0.15248871       0.00000000
Si      -2.36569896      -0.17798454       2.95602166       0.00000000
Si      -2.56720626       2.81904966       0.10150957       0.00000000
Si       2.75675670      -2.69576694       0.29747141       0.00000000
Si      -2.68747533      -2.81740437       0.12977763       0.00000000
Si       0.34819875       2.53518012       2.97545379       0.00000000
