10
Lattice="16.28999089631971 0.0 0.0 0.0 16.28999089631971 0.0 0.0 0.0 34.51530692428229" Properties=species:S:1:pos:R:3:initial_magmoms:R:1 pbc="T T T"
Si      -0.71019513       2.17390050       0.59249009       0.00000000
Si       2.36594331       0.13810662      -0.16311943       0.00000000
Si      -0.81839331      -0.53436087      -2.16531899       0.00000000
Si      -1.07784414      -1.45055934       1.88353587       0.00000000
Si      -2.27550123      -2.77273719      -0.02699099       0.00000000
Si       3.12676776      -1.57369545       1.18318538       0.00000000
Si       0.97608051      -0.13727583      -3.56622705       0.00000000
Si      -1.19726613      -2.88082134      -2.12614409       0.00000000
Si       2.90255220       0.60575994      -2.42832578       0.00000000
Si       3.09871638       1.81789884       1.37819698       0.00000000
