10
Lattice="16.28999089631971 0.0 0.0 0.0 16.28999089631971 0.0 0.0 0.0 34.51530692428229" Properties=species:S:1:pos:R:3:initial_magmoms:R:1 pbc="T T T"
Si      -0.58813416      -2.10773052       0.89505144       0.00000000
Si      -1.62425961       1.35525048       1.08164129       0.00000000
Si       1.89612342       1.38905549       0.42450400       0.00000000
Si       0.14972139      -0.64655010      -2.31114624       0.00000000
Si       2.41002405      -1.46108268      -2.31345877       0.00000000
Si       1.51127217      -3.07926612       1.28624815       0.00000000
Si       1.07548209       3.57207839      -0.14020126       0.00000000
Si      -3.74892847       0.63648876       0.16097948       0.00000000
Si      -1.54289106      -3.41027892      -0.80703736       0.00000000
Si      -1.21261131       3.64473179       0.46557724       0.00000000
