10
Lattice="16.28999089631971 0.0 0.0 0.0 16.28999089631971 0.0 0.0 0.0 34.51530692428229" Properties=species:S:1:pos:R:3:initial_magmoms:R:1 pbc="T T T"
Si      -1.35687555       1.35729909      -1.35779842       0.00000000
Si       1.35684297       1.35829278       1.35693553       0.00000000
Si       1.35762489      -1.35777150      -1.35828163       0.00000000
Si      -1.35899325      -1.35805820       1.35672844       0.00000000
Si       0.00148239       2.71396287      -2.71456138       0.00000000
Si      -2.71433754       2.71474479      -0.00044870       0.00000000
Si      -2.71085148      -0.00048870       2.71856515       0.00000000
Si      -2.71480995      -2.71500969      -0.00027612       0.00000000
Si       2.71533123      -0.00042354      -2.71487201       0.00000000
Si       2.71555929       2.71474479      -0.00017258       0.00000000
