10
Lattice="16.28999089631971 0.0 0.0 0.0 16.28999089631971 0.0 0.0 0.0 34.51530692428229" Properties=species:S:1:pos:R:3:initial_magmoms:R:1 pbc="T T T"
Si      -1.35749457       1.35442682      -1.36197477       0.00000000
Si       1.36013355      -1.36228647      -1.36180220       0.00000000
Si      -1.36130643      -1.35192603       1.37408965       0.00000000
Si       1.35534429       1.35332562       1.39469530       0.00000000
Si      -2.70935280       2.71199632      -0.00013806       0.00000000
Si       2.71837746       2.70956911       0.00176028       0.00000000
Si       0.00149868       2.71248502      -2.71870322       0.00000000
Si      -2.71331127      -0.00252467      -2.71897934       0.00000000
Si      -2.71505430      -2.71767963       0.00338250       0.00000000
Si       2.71728603      -0.00281676      -2.71922095       0.00000000
