10
Lattice="16.28999089631971 0.0 0.0 0.0 16.28999089631971 0.0 0.0 0.0 34.51530692428229" Properties=species:S:1:pos:R:3:initial_magmoms:R:1 pbc="T T T"
Si       0.83191401       1.53445284       1.51177129       0.00000000
Si       1.16636400       0.00970884      -2.01438347       0.00000000
Si      -1.97047098       1.11982347      -0.72281996       0.00000000
Si       0.46983618      -2.02826790       1.19530026       0.00000000
Si       0.37120023       3.60696438       0.51631476       0.00000000
Si      -0.57010113      -3.69513305      -0.03223731       0.00000000
Si       3.50259435      -0.36691596      -1.42717422       0.00000000
Si       0.18178011      -1.63004256      -3.43341208       0.00000000
Si      -0.43512219       1.50535890       3.48787726       0.00000000
Si      -1.38507354       3.42845856      -1.02203332       0.00000000
