10
Lattice="16.28999089631971 0.0 0.0 0.0 16.28999089631971 0.0 0.0 0.0 34.51530692428229" Properties=species:S:1:pos:R:3:initial_magmoms:R:1 pbc="T T T"
Si      -0.05198139       1.64758689      -1.65911722       0.00000000
Si      -2.26209456       0.05540229       0.65644699       0.00000000
Si       0.94128507      -1.59896124      -1.48961245       0.00000000
Si       1.03294890       0.80474229       1.99184496       0.00000000
Si      -2.75154390       2.33362395       0.62503804       0.00000000
Si      -0.52804035      -3.43725190      -1.23136878       0.00000000
Si       2.12312457       2.45099340      -1.84746735       0.00000000
Si      -0.89621064       0.70876161      -3.61976032       0.00000000
Si       3.18519999      -1.94512374      -0.71874715       0.00000000
Si      -3.54270033      -0.97985979      -0.97191707       0.00000000
