10
Lattice="16.28999089631971 0.0 0.0 0.0 16.28999089631971 0.0 0.0 0.0 34.51530692428229" Properties=species:S:1:pos:R:3:initial_magmoms:R:1 pbc="T T T"
Si       1.35531171       1.35167904      -1.37736861       0.00000000
Si      -1.36246302      -1.36404315      -1.37795537       0.00000000
Si       1.27760841      -1.36262592       1.49782710       0.00000000
Si      -1.40038614       1.28661678       1.47949946       0.00000000
Si      -0.53695098      -2.22452982       2.80961658       0.00000000
Si       2.71834488       2.69680950       0.00231253       0.00000000
Si       2.71164969      -2.71557558       0.00824916       0.00000000
Si      -2.72642472       2.70352098       0.00541891       0.00000000
Si      -2.72432331      -2.71904535      -0.00120804       0.00000000
Si      -0.00280188       2.70886410      -2.73775568       0.00000000
