10
Lattice="16.28999089631971 0.0 0.0 0.0 16.28999089631971 0.0 0.0 0.0 34.51530692428229" Properties=species:S:1:pos:R:3:initial_magmoms:R:1 pbc="T T T"
Si       0.23402214      -0.58684725       2.27010752       0.00000000
Si      -0.85553451      -1.78758315      -1.29501504       0.00000000
Si       1.81455939       0.86190390      -1.31178949       0.00000000
Si      -1.98687501       1.82917152       0.09709161       0.00000000
Si      -2.18737233      -0.49451553      -2.81082462       0.00000000
Si       0.53695098       2.22452982      -2.80961658       0.00000000
Si      -0.86343516       3.51114660      -1.33011713       0.00000000
Si       3.13225749       2.28566619       0.13830291       0.00000000
Si      -2.76179031      -2.77728210      -0.10810200       0.00000000
Si      -3.64563684       0.76183443      -1.33015164       0.00000000
