10
Lattice="16.28999089631971 0.0 0.0 0.0 16.28999089631971 0.0 0.0 0.0 34.51530692428229" Properties=species:S:1:pos:R:3:initial_magmoms:R:1 pbc="T T T"
Si       1.75627377       0.17850582       1.53834809       0.00000000
Si      -1.83109374       1.07909847       1.04253543       0.00000000
Si      -0.58539744      -2.30863509       0.29921336       0.00000000
Si       0.30661038       1.16072766      -2.09028267       0.00000000
Si      -2.15671455      -1.98262332       2.08130869       0.00000000
Si      -1.85642469       2.10750246      -2.30890275       0.00000000
Si       0.50477823      -0.66238398      -3.54009895       0.00000000
Si       1.04256000       1.53391527       3.27723022       0.00000000
Si      -2.38607775       2.92439709      -0.21471984       0.00000000
Si       3.75578982       0.60404949       0.46102121       0.00000000
