10
Lattice="16.28999089631971 0.0 0.0 0.0 16.28999089631971 0.0 0.0 0.0 34.51530692428229" Properties=species:S:1:pos:R:3:initial_magmoms:R:1 pbc="T T T"
Si      -1.34503272      -1.35190710      -1.38182108       0.00000000
Si       1.36765953       1.36493910      -1.38416813       0.00000000
Si      -1.32887304       1.35896067       1.48288196       0.00000000
Si       1.32603858      -1.41690420       1.47408055       0.00000000
Si       0.63542403       2.18955519       2.58820077       0.00000000
Si       2.32551153       0.14401989       3.01536244       0.00000000
Si      -2.71956663      -2.70381420       0.01328840       0.00000000
Si      -2.70630657       2.71775844       0.00334799       0.00000000
Si       2.72642472      -2.70352098      -0.00541891       0.00000000
Si       2.72844468       2.70679527      -0.03240989       0.00000000
