10
Lattice="16.28999089631971 0.0 0.0 0.0 16.28999089631971 0.0 0.0 0.0 34.51530692428229" Properties=species:S:1:pos:R:3:initial_magmoms:R:1 pbc="T T T"
Si       0.76092219       1.84671585      -1.25870492       0.00000000
Si      -0.32839011       1.14849387       2.07723588       0.00000000
Si      -1.96429707      -0.83059452      -1.10531881       0.00000000
Si       1.69008750      -2.04553530       0.42716168       0.00000000
Si       2.09302065       0.51724008      -2.62061066       0.00000000
Si      -0.63542403      -2.18955519      -2.58820077       0.00000000
Si       3.34805112      -0.92321946      -1.19150358       0.00000000
Si       0.28771398      -2.68102449       2.50733136       0.00000000
Si       2.65764834       2.58224193       0.04207418       0.00000000
Si      -0.18552681      -0.62473779       3.67809122       0.00000000
