10
Lattice="16.28999089631971 0.0 0.0 0.0 16.28999089631971 0.0 0.0 0.0 34.51530692428229" Properties=species:S:1:pos:R:3:initial_magmoms:R:1 pbc="T T T"
Si      -1.35707252       1.35801137      -1.35552041       0.00000000
Si      -1.35689333      -1.35748343       1.35745326       0.00000000
Si       1.35818282       1.35700139       1.35769487       0.00000000
Si       1.35778534      -1.35476300      -1.36128447       0.00000000
Si      -0.00162899       2.69519883      -2.71652530       0.00000000
Si      -2.71398065      -0.00032690       2.71463041       0.00000000
Si       2.71499484       2.71362282      -0.00072482       0.00000000
Si      -2.71443677       2.71455135       0.00027612       0.00000000
Si       0.00066201       2.71456764       2.71463041       0.00000000
Si      -2.71461596      -2.71484768       0.00000000       0.00000000
