10
Lattice="16.28999089631971 0.0 0.0 0.0 16.28999089631971 0.0 0.0 0.0 34.51530692428229" Properties=species:S:1:pos:R:3:initial_magmoms:R:1 pbc="T T T"
Si       1.35448092       1.35596331       1.37669901       0.00000000
Si      -1.36057338      -1.35268902       1.37818317       0.00000000
Si       1.21673268      -1.48383981      -1.42966623       0.00000000
Si      -1.38225537       1.26221436      -1.50212425       0.00000000
Si       2.38391118       0.16097778      -2.63614808       0.00000000
Si      -2.03610339      -0.64550754      -2.97207474       0.00000000
Si      -0.48084822      -2.54242917      -2.80219031       0.00000000
Si      -2.73458601       2.69510477      -0.01079985       0.00000000
Si       2.72919402       2.70591561       0.00131158       0.00000000
Si       2.71790505      -2.72005533      -0.01660532       0.00000000
