10
Lattice="16.28999089631971 0.0 0.0 0.0 16.28999089631971 0.0 0.0 0.0 34.51530692428229" Properties=species:S:1:pos:R:3:initial_magmoms:R:1 pbc="T T T"
Si      -1.35464382      -1.35650088       1.35669393       0.00000000
Si       1.35887922      -1.35241209      -1.35917903       0.00000000
Si      -1.35488817       1.36107837      -1.35693553       0.00000000
Si       1.36013355       1.35858600       1.35627974       0.00000000
Si      -2.71208952       0.00087966       2.71394010       0.00000000
Si      -2.71158453       2.71577459       0.00024161       0.00000000
Si       0.00283446      -2.71347417       2.71407816       0.00000000
Si      -2.71332756      -2.71453302       0.00027612       0.00000000
Si       0.00254124       2.71653961       2.71414719       0.00000000
Si       2.71899648      -2.71244790      -0.00117352       0.00000000
