10
Lattice="16.28999089631971 0.0 0.0 0.0 16.28999089631971 0.0 0.0 0.0 34.51530692428229" Properties=species:S:1:pos:R:3:initial_magmoms:R:1 pbc="T T T"
Si       1.35544353       1.33718746      -1.36100489       0.00000000
Si      -1.35736425       1.35653998       1.35579653       0.00000000
Si       1.35707252      -1.35801137       1.35552041       0.00000000
Si      -1.34140005      -1.36839325      -1.37980539       0.00000000
Si      -2.66900247       0.09656712      -2.73029691       0.00000000
Si       2.67903778      -0.04326461      -2.74606351       0.00000000
Si      -0.00003258       2.71457212       2.71287013       0.00000000
Si      -2.71507059      -0.00080798       2.71238691       0.00000000
Si       2.71485786      -2.71277437      -0.00576406       0.00000000
Si       0.00017919      -2.71549480       2.71297367       0.00000000
