10
Lattice="16.28999089631971 0.0 0.0 0.0 16.28999089631971 0.0 0.0 0.0 34.51530692428229" Properties=species:S:1:pos:R:3:initial_magmoms:R:1 pbc="T T T"
Si      -1.35773892      -1.35553313      -1.35600362       0.00000000
Si       1.35591852      -1.35499961       1.35879936       0.00000000
Si       1.35690373       1.35936140      -1.35600362       0.00000000
Si      -1.35664749       1.35685274       1.36497761       0.00000000
Si      -0.00065160      -2.71268966      -2.71318076       0.00000000
Si       2.71360679      -2.71259192       0.00165674       0.00000000
Si       2.71442455       0.00179516      -2.71293916       0.00000000
Si      -2.71590138       0.00199715      -2.71376752       0.00000000
Si      -2.71489140      -2.71500284       0.00141513       0.00000000
Si       2.71451903       2.71540616       0.00069031       0.00000000
