10
Lattice="16.28999089631971 0.0 0.0 0.0 16.28999089631971 0.0 0.0 0.0 34.51530692428229" Properties=species:S:1:pos:R:3:initial_magmoms:R:1 pbc="T T T"
Si       1.35796698      -1.35606105      -1.36062867       0.00000000
Si      -1.35811359       1.35718506      -1.36038707       0.00000000
Si      -1.35531171      -1.35167904       1.37736861       0.00000000
Si       1.36303317       1.34513046       1.37968113       0.00000000
Si      -0.09826128       2.61817767       2.77948470       0.00000000
Si       2.71290402      -2.71511946       0.00207092       0.00000000
Si      -2.71407690       2.71678104      -0.00138061       0.00000000
Si       2.70994071       2.72122821       0.00027612       0.00000000
Si       2.71439611      -0.00014661      -2.71780582       0.00000000
Si      -0.00055386       2.71479366      -2.71770227       0.00000000
