10
Lattice="16.28999089631971 0.0 0.0 0.0 16.28999089631971 0.0 0.0 0.0 34.51530692428229" Properties=species:S:1:pos:R:3:initial_magmoms:R:1 pbc="T T T"
Si      -2.14368255      -0.28999458      -0.81128274       0.00000000
Si       1.48333482      -1.59469326      -0.92956677       0.00000000
Si       0.24084765       2.34098703       0.30104268       0.00000000
Si      -0.26329527      -0.82704330       2.49866801       0.00000000
Si       3.47585661      -0.37988280      -0.89315310       0.00000000
Si      -1.09915146       2.57766444       2.33937978       0.00000000
Si       1.86676884      -1.81736127       2.69968527       0.00000000
Si       1.93230351      -3.17599614       0.69337839       0.00000000
Si      -2.51592534       0.98316666      -2.74172494       0.00000000
Si       0.14377554       3.38529006      -1.83949431       0.00000000
