10
Lattice="16.28999089631971 0.0 0.0 0.0 16.28999089631971 0.0 0.0 0.0 34.51530692428229" Properties=species:S:1:pos:R:3:initial_magmoms:R:1 pbc="T T T"
Si      -0.83191401      -1.53445284      -1.51177129       0.00000000
Si      -0.46071378       2.07251154      -0.99545652       0.00000000
Si      -1.26703620      -0.02909394       1.97610597       0.00000000
Si       2.33810370      -0.24747768       0.45608552       0.00000000
Si      -0.80218476       2.15475975       2.67386781       0.00000000
Si       1.53880227       2.49805521      -2.07278340       0.00000000
Si      -0.36207783      -3.56272074      -0.31647103       0.00000000
Si      -2.80238499      -0.41462937      -2.23459125       0.00000000
Si      -1.17442755       3.42792099       0.74342561       0.00000000
Si       3.32332290       1.32348105      -0.96974261       0.00000000
