10
Lattice="16.28999089631971 0.0 0.0 0.0 16.28999089631971 0.0 0.0 0.0 34.51530692428229" Properties=species:S:1:pos:R:3:initial_magmoms:R:1 pbc="T T T"
Si       0.98521920       1.57095873      -1.42582813       0.00000000
Si      -2.33810370       0.24747768      -0.45608552       0.00000000
Si       0.48672891       1.09753875       2.09949826       0.00000000
Si       0.92807388      -2.03924736      -1.06251980       0.00000000
Si       1.81697098       0.17295093      -3.11017605       0.00000000
Si       2.29707475       3.01314501      -0.05260136       0.00000000
Si       0.33257664      -1.65389112      -3.39503103       0.00000000
Si      -0.79930143       2.74553289      -2.52886892       0.00000000
Si       0.93569760      -0.48376413       3.72244342       0.00000000
Si      -0.37877508      -3.86647222      -0.38346527       0.00000000
