10
Lattice="16.28999089631971 0.0 0.0 0.0 16.28999089631971 0.0 0.0 0.0 34.51530692428229" Properties=species:S:1:pos:R:3:initial_magmoms:R:1 pbc="T T T"
Si      -1.35708732       1.35715653       1.35717714       0.00000000
Si       1.35689333       1.35748343      -1.35745326       0.00000000
Si       1.35715765      -1.35754344       1.35752230       0.00000000
Si      -1.35772263      -1.35736425      -1.35745326       0.00000000
Si       0.00065160       2.71268966       2.71318076       0.00000000
Si      -0.00017919       2.71549480      -2.71297367       0.00000000
Si      -2.71423980      -0.00231318       2.71459589       0.00000000
Si       2.71425839       0.00009774       2.71483750       0.00000000
Si      -0.00133578      -2.71568961       2.71342237       0.00000000
Si       2.71507615       2.71448482       0.00024161       0.00000000
