10
Lattice="16.28999089631971 0.0 0.0 0.0 16.28999089631971 0.0 0.0 0.0 34.51530692428229" Properties=species:S:1:pos:R:3:initial_magmoms:R:1 pbc="T T T"
Si       1.34894232      -1.25770203      -1.44056617       0.00000000
Si       1.68884946       1.14026320       1.27772286       0.00000000
Si      -0.79894305      -1.91684430       1.21987517       0.00000000
Si      -1.37213928       1.46023953      -1.39700783       0.00000000
Si       0.15684012       1.71745211       3.07207112       0.00000000
Si       2.64181446      -2.54666457       0.05770963       0.00000000
Si      -2.69566920      -2.65237038      -0.08090392       0.00000000
Si      -0.00811242      -2.61338841      -2.79567239       0.00000000
Si       3.45751407      -0.83575845       1.50676657       0.00000000
Si       2.70345990       0.10463067      -2.79612109       0.00000000
