10
Lattice="16.28999089631971 0.0 0.0 0.0 16.28999089631971 0.0 0.0 0.0 34.51530692428229" Properties=species:S:1:pos:R:3:initial_magmoms:R:1 pbc="T T T"
Si      -1.41726258       1.55654633       0.87858763       0.00000000
Si      -1.38745188      -1.90112445      -0.02005340       0.00000000
Si      -0.27647388       0.09617616      -2.34624833       0.00000000
Si       2.16990945       0.36028593       1.01447447       0.00000000
Si      -0.96109371       3.54676373      -0.22693827       0.00000000
Si       1.27904193       1.67674666      -3.02806408       0.00000000
Si      -0.38499786      -3.37387077       1.48143232       0.00000000
Si       3.17078334      -1.73778462       0.99770002       0.00000000
Si       0.30993354      -1.96776684      -3.21900287       0.00000000
Si      -3.64074984       0.77294421       0.89353277       0.00000000
