10
Lattice="16.28999089631971 0.0 0.0 0.0 16.28999089631971 0.0 0.0 0.0 34.51530692428229" Properties=species:S:1:pos:R:3:initial_magmoms:R:1 pbc="T T T"
Si      -0.81775800       2.19090726      -0.36600052       0.00000000
Si      -2.09039307      -1.11935106      -0.10920649       0.00000000
Si       0.82816731       0.03982905       2.28536329       0.00000000
Si       1.60173054      -0.49998897      -1.88256944       0.00000000
Si      -2.77831814      -0.14727789       1.98970501       0.00000000
Si       3.25979190       1.03483854      -1.15999108       0.00000000
Si       0.83650779       3.55249062       0.57575016       0.00000000
Si       1.23720921       2.42699823       2.61940262       0.00000000
Si      -0.38776716       2.55761145      -2.80916789       0.00000000
Si      -1.68049269      -3.47188770       0.11369348       0.00000000
