10
Lattice="16.28999089631971 0.0 0.0 0.0 16.28999089631971 0.0 0.0 0.0 34.51530692428229" Properties=species:S:1:pos:R:3:initial_magmoms:R:1 pbc="T T T"
Si       2.24011935      -0.43466607       0.49163631       0.00000000
Si      -1.01020806      -1.89475506       1.13262043       0.00000000
Si      -0.82816731      -0.03982905      -2.28536329       0.00000000
Si       0.40904190       2.38716918       0.33403933       0.00000000
Si      -1.23562908       2.75731056       1.87255999       0.00000000
Si      -3.60648545      -0.18710694      -0.29565828       0.00000000
Si       3.43629405       0.57746421      -1.29280606       0.00000000
Si      -1.64592531       2.15107821      -2.65136381       0.00000000
Si      -0.83913048      -3.67549641      -0.49954032       0.00000000
Si      -3.15211826       1.99616031       0.79271350       0.00000000
