10
Lattice="16.28999089631971 0.0 0.0 0.0 16.28999089631971 0.0 0.0 0.0 34.51530692428229" Properties=species:S:1:pos:R:3:initial_magmoms:R:1 pbc="T T T"
Si       1.91648918       0.76115025       1.07984650       0.00000000
Si      -0.35286421       0.90103248      -2.12390060       0.00000000
Si      -1.66665012       0.99259857       1.40718985       0.00000000
Si      -0.45436720      -2.18326725      -1.08837178       0.00000000
Si      -2.77207323      -1.04702346       1.22753758       0.00000000
Si      -0.98755260      -2.22159762       2.33057837       0.00000000
Si      -2.73406866      -1.77862365      -1.02496713       0.00000000
Si      -2.53611258       0.06802704      -2.39477688       0.00000000
Si       3.56116016       0.39100887      -0.45867417       0.00000000
Si      -0.15580082      -3.61960542       0.64623045       0.00000000
