10
Lattice="16.28999089631971 0.0 0.0 0.0 16.28999089631971 0.0 0.0 0.0 34.51530692428229" Properties=species:S:1:pos:R:3:initial_magmoms:R:1 pbc="T T T"
Si       0.00762861      -1.35005004       1.90303703       0.00000000
Si       1.98023032       1.14754905      -0.48045334       0.00000000
Si      -0.17946204      -1.52713863      -1.82192601       0.00000000
Si      -1.46375668       1.79172081       0.76699958       0.00000000
Si       1.80177337       1.54313541      -2.78573198       0.00000000
Si      -3.41447101       1.19373120      -0.62773024       0.00000000
Si       1.68029884      -2.97010683      -1.54621758       0.00000000
Si       3.80974393      -0.21822084       0.01259809       0.00000000
Si      -0.38764010       3.84274584      -0.00296832       0.00000000
Si      -1.78854982      -2.96461710       1.77091236       0.00000000
