10
Lattice="16.28999089631971 0.0 0.0 0.0 16.28999089631971 0.0 0.0 0.0 34.51530692428229" Properties=species:S:1:pos:R:3:initial_magmoms:R:1 pbc="T T T"
Si       1.82951361      -1.36576989       0.49305143       0.00000000
Si      -1.98023032      -1.14754905       0.48045334       0.00000000
Si      -0.17845695       0.39558636      -2.30527864       0.00000000
Si      -0.14867883       2.21915412       1.30350581       0.00000000
Si       1.44687780       2.05550478      -2.49031530       0.00000000
Si      -2.36787042       2.69519679       0.47748502       0.00000000
Si       2.90774871      -1.47385404      -1.60610167       0.00000000
Si      -2.15969236      -2.67468768      -1.34147267       0.00000000
Si      -3.44398700       0.64417176       1.24745292       0.00000000
Si       1.11189024      -3.52388538       0.77041660       0.00000000
