10
Lattice="16.28999089631971 0.0 0.0 0.0 16.28999089631971 0.0 0.0 0.0 34.51530692428229" Properties=species:S:1:pos:R:3:initial_magmoms:R:1 pbc="T T T"
Si      -1.35591852       1.35499961      -1.35879936       0.00000000
Si      -1.35451758      -1.36233270       1.35555492       0.00000000
Si       1.35768827      -1.35759231      -1.35714263       0.00000000
Si       1.36408046       1.34735797       1.36587500       0.00000000
Si       2.54549479      -0.13038516       2.85445199       0.00000000
Si      -2.71256601       2.71185236       0.00617824       0.00000000
Si       2.71515514       2.71274831      -0.00017258       0.00000000
Si      -2.71365744      -0.00053352      -2.71480298       0.00000000
Si       0.00098521       2.71436102      -2.71480298       0.00000000
Si      -2.71157232      -2.71801908       0.00044870       0.00000000
