10
Lattice="16.28999089631971 0.0 0.0 0.0 16.28999089631971 0.0 0.0 0.0 34.51530692428229" Properties=species:S:1:pos:R:3:initial_magmoms:R:1 pbc="T T T"
Si       1.35669636      -1.35790182      -1.36142253       0.00000000
Si      -1.35782526       1.35749457      -1.36162962       0.00000000
Si       1.34827443       1.35584928       1.37281258       0.00000000
Si      -1.36723925      -1.34832330       1.37388256       0.00000000
Si      -2.71931171      -2.70879894      -0.00127707       0.00000000
Si      -2.71551352       2.71508688      -0.00448699       0.00000000
Si       2.71780731      -2.71547784      -0.00031064       0.00000000
Si       2.71557558       2.71785618      -0.00497021       0.00000000
Si      -2.71492600      -0.00014661      -2.71894482       0.00000000
Si       0.00021177       2.71518936      -2.71925546       0.00000000
