10
Lattice="16.28999089631971 0.0 0.0 0.0 16.28999089631971 0.0 0.0 0.0 34.40246978574605" Properties=species:S:1:pos:R:3:initial_magmoms:R:1 pbc="T T T"
Si       1.35684297       1.35716877       1.35710939       0.00000000
Si      -1.35663120       1.35549090      -1.36065284       0.00000000
Si      -1.35816246      -1.35849478       1.35693737       0.00000000
Si       1.35532800      -1.36183260      -1.35810706       0.00000000
Si      -2.69615790      -0.03204243      -2.71242296       0.00000000
Si      -0.00293220       2.72486088      -2.69676295       0.00000000
Si       2.71368594       2.71498914      -0.00089446       0.00000000
Si       2.71495656      -0.00140094       2.71384035       0.00000000
Si      -2.71332756       2.71598283      -0.00034402       0.00000000
Si      -0.00070047       2.71445157       2.71535406       0.00000000
