10
Lattice="16.28999089631971 0.0 0.0 0.0 16.28999089631971 0.0 0.0 0.0 34.40246978574605" Properties=species:S:1:pos:R:3:initial_magmoms:R:1 pbc="T T T"
Si       1.43352000      -0.58289271       1.72077810       0.00000000
Si      -0.03893310      -1.53514095      -1.80743797       0.00000000
Si       0.39592845       2.20544120      -0.78774819       0.00000000
Si      -2.02108401      -0.30708672       1.24199866       0.00000000
Si      -2.39914233      -1.44914604      -2.13054614       0.00000000
Si      -1.19656566       2.31810284      -2.50842308       0.00000000
Si      -2.19486573      -2.70108141       1.40420639       0.00000000
Si      -3.08165098       0.84985745      -1.97036816       0.00000000
Si       1.20829446       1.03108532       3.44571890       0.00000000
Si       3.65907609      -0.59867772       1.14047691       0.00000000
