10
Lattice="16.28999089631971 0.0 0.0 0.0 16.28999089631971 0.0 0.0 0.0 34.40246978574605" Properties=species:S:1:pos:R:3:initial_magmoms:R:1 pbc="T T T"
Si      -1.99651869      -0.34194665      -1.03351957       0.00000000
Si       0.17361882      -1.01221825       2.10718685       0.00000000
Si       1.41872868      -1.34411071      -1.29910679       0.00000000
Si       0.61973676       2.20881649      -0.54390335       0.00000000
Si       1.91562255       0.58045180       2.35412792       0.00000000
Si      -3.00524436       1.68577717      -0.13805719       0.00000000
Si       0.08708634       1.94078083      -2.90043945       0.00000000
Si       2.72631069       2.09747434       0.64115919       0.00000000
Si      -1.77129315      -1.95592468      -2.75846037       0.00000000
Si      -3.56656518      -1.36338178       0.38771605       0.00000000
