10
Lattice="16.28999089631971 0.0 0.0 0.0 16.28999089631971 0.0 0.0 0.0 34.40246978574605" Properties=species:S:1:pos:R:3:initial_magmoms:R:1 pbc="T T T"
Si      -1.35573525      -1.35552348      -1.35752222       0.00000000
Si      -1.35782037       1.35718506       1.35645574       0.00000000
Si       1.35689184      -1.35705474       1.35817586       0.00000000
Si       1.35883035       1.35679410      -1.35745341       0.00000000
Si       2.71295289       0.00156384      -2.71459720       0.00000000
Si      -0.00030951      -2.71480995       2.71308349       0.00000000
Si       2.71443528      -2.71433754      -0.00006880       0.00000000
Si      -2.71502172      -0.00022806       2.71414997       0.00000000
Si       2.71420722       2.71508688      -0.00013761       0.00000000
Si      -0.00100998       2.71583622       2.71359953       0.00000000
