10
Lattice="16.28999089631971 0.0 0.0 0.0 16.28999089631971 0.0 0.0 0.0 34.40246978574605" Properties=species:S:1:pos:R:3:initial_magmoms:R:1 pbc="T T T"
Si      -1.81542276      -1.39680234       0.49763200       0.00000000
Si      -0.60735636       2.30909121       0.05765857       0.00000000
Si       1.91422161      -0.77840136       1.26387864       0.00000000
Si      -0.15167619      -0.19349262      -2.42368975       0.00000000
Si      -2.23479252      -0.72332487       2.72460832       0.00000000
Si       1.37907882       3.32377902      -0.70349650       0.00000000
Si      -3.21529088      -1.23082353      -1.37503308       0.00000000
Si      -2.11696695       2.59968852      -1.79519068       0.00000000
Si       2.06171127      -3.13031898       0.92281237       0.00000000
Si      -0.56003391       1.89475506      -3.37715474       0.00000000
