10
Lattice="16.28999089631971 0.0 0.0 0.0 16.28999089631971 0.0 0.0 0.0 34.40246978574605" Properties=species:S:1:pos:R:3:initial_magmoms:R:1 pbc="T T T"
Si      -0.05921415       2.22078312       0.76748513       0.00000000
Si      -2.13825798      -1.08056457       0.09687741       0.00000000
Si       0.36241992       0.29476755      -2.36771690       0.00000000
Si       1.46535066      -1.70557929       0.94847662       0.00000000
Si       0.50990958      -2.05715007      -2.70878318       0.00000000
Si      -1.43062038      -2.81395089      -1.41807060       0.00000000
Si       1.43873280       2.10053034       2.55648336       0.00000000
Si       3.42362043      -1.32338331      -0.33126157       0.00000000
Si      -2.17860831       2.59747308       1.69012548       0.00000000
Si       3.65923899       1.01281446      -0.84145048       0.00000000
