10
Lattice="16.28999089631971 0.0 0.0 0.0 16.28999089631971 0.0 0.0 0.0 34.40246978574605" Properties=species:S:1:pos:R:3:initial_magmoms:R:1 pbc="T T T"
Si      -2.01914387      -1.15970628      -0.47385988       0.00000000
Si       1.04875020      -0.53887320       2.12689948       0.00000000
Si      -0.75844611       2.34890397       0.11696846       0.00000000
Si       1.02499938      -0.93006940      -2.25852340       0.00000000
Si       3.47125239       0.50542983      -0.66259194       0.00000000
Si       3.15275031       0.41021478       2.11740439       0.00000000
Si      -3.68638532       0.54468873      -0.89745773       0.00000000
Si      -1.55545065      -3.23013500      -1.78868861       0.00000000
Si      -2.30181447       2.35180359      -2.29750142       0.00000000
Si      -1.89918920       2.79526626       2.19866307       0.00000000
