10
Lattice="16.28999089631971 0.0 0.0 0.0 16.28999089631971 0.0 0.0 0.0 34.40246978574605" Properties=species:S:1:pos:R:3:initial_magmoms:R:1 pbc="T T T"
Si       1.35394335      -1.35731538       1.35580209       0.00000000
Si      -1.35860229       1.35622395       1.35569888       0.00000000
Si      -1.34403903      -1.36332639      -1.36485683       0.00000000
Si       1.35681039       1.34441370      -1.37392188       0.00000000
Si       0.07731234      -2.62519866      -2.79333762       0.00000000
Si       2.71256193      -0.00043983       2.71349632       0.00000000
Si       2.70990666       2.71658556      -0.00560761       0.00000000
Si      -0.00175932       2.71441899       2.71328991       0.00000000
Si      -0.00210141      -2.71549413       2.71359953       0.00000000
Si      -2.71719318      -0.00079821       2.71346192       0.00000000
