10
Lattice="16.28999089631971 0.0 0.0 0.0 16.28999089631971 0.0 0.0 0.0 34.40246978574605" Properties=species:S:1:pos:R:3:initial_magmoms:R:1 pbc="T T T"
Si       1.35782037      -1.35718506      -1.35645574       0.00000000
Si      -1.35764118       1.35786924      -1.35652454       0.00000000
Si      -1.35720135      -1.35741312       1.35769423       0.00000000
Si       1.35681039       1.35865116       1.35714379       0.00000000
Si       0.00208512      -2.71270854      -2.71397796       0.00000000
Si       0.00465894       2.70966231       2.71721179       0.00000000
Si       2.71471221      -2.71423980       0.00172012       0.00000000
Si      -2.71490769       0.00146610      -2.71480362       0.00000000
Si      -2.71533123      -2.71446786       0.00030962       0.00000000
Si      -2.71542897       2.71438641       0.00020641       0.00000000
