10
Lattice="16.28999089631971 0.0 0.0 0.0 16.28999089631971 0.0 0.0 0.0 34.40246978574605" Properties=species:S:1:pos:R:3:initial_magmoms:R:1 pbc="T T T"
Si      -0.82124895      -0.11327740       2.19542924       0.00000000
Si      -1.85013742       0.47253543      -1.40826589       0.00000000
Si       0.68250865      -2.29900348      -0.16017799       0.00000000
Si       1.88508532       1.46824539      -0.53805493       0.00000000
Si       0.01223379      -2.38661110      -2.40985995       0.00000000
Si       1.06056697      -1.15694416       3.21236681       0.00000000
Si       3.08165098      -0.84985745       1.97036816       0.00000000
Si      -1.40836891      -0.75832394      -3.40667207       0.00000000
Si      -1.78189861       2.86599255      -1.73670645       0.00000000
Si       3.04271788      -2.38499839       0.16293019       0.00000000
