10
Lattice="16.28999089631971 0.0 0.0 0.0 16.28999089631971 0.0 0.0 0.0 34.40246978574605" Properties=species:S:1:pos:R:3:initial_magmoms:R:1 pbc="T T T"
Si      -0.90868878      -1.83071907       1.18077909       0.00000000
Si       1.81998396       0.85020768       1.25180646       0.00000000
Si       1.43231454       0.12725748      -1.88022163       0.00000000
Si      -1.67506812       1.71520668       0.02486302       0.00000000
Si       0.43792407       2.18857844       2.67736648       0.00000000
Si      -2.30692464      -0.54188685       2.66578316       0.00000000
Si      -1.88278191       2.40433462      -2.23322557       0.00000000
Si      -0.78493365       3.57891041       1.23794570       0.00000000
Si      -2.51387280      -2.93754312      -0.34831320       0.00000000
Si       2.86801740      -1.67892885      -2.18747026       0.00000000
