10
Lattice="16.28999089631971 0.0 0.0 0.0 16.28999089631971 0.0 0.0 0.0 34.40246978574605" Properties=species:S:1:pos:R:3:initial_magmoms:R:1 pbc="T T T"
Si       1.59249411      -0.11266164       1.72067489       0.00000000
Si      -0.34410996       2.37765582       0.00478195       0.00000000
Si       1.20396132      -0.79050483      -1.93964673       0.00000000
Si      -1.88508532      -1.46824539       0.53805493       0.00000000
Si      -1.74397808       2.54363463      -1.86788314       0.00000000
Si       3.53302407       0.64413918       0.42996231       0.00000000
Si       1.19656566      -2.31810284       2.50842308       0.00000000
Si       0.88485651       1.62072468       3.23562290       0.00000000
Si       1.79100405      -3.03568127      -1.45037453       0.00000000
Si       3.30796143       0.15858315      -1.94914182       0.00000000
