10
Lattice="16.28999089631971 0.0 0.0 0.0 16.28999089631971 0.0 0.0 0.0 34.40246978574605" Properties=species:S:1:pos:R:3:initial_magmoms:R:1 pbc="T T T"
Si       1.34035749       1.35821133       1.35511404       0.00000000
Si      -1.35402480       1.35171162      -1.35521725       0.00000000
Si      -1.34089506      -1.36200690       1.36316422       0.00000000
Si       1.35827649      -1.36213722      -1.35353153       0.00000000
Si       0.24865056      -2.53586430       2.71036569       0.00000000
Si      -0.10005318       2.53161261       2.84714999       0.00000000
Si       2.64078819       0.04194675       2.75188950       0.00000000
Si      -2.71059084       2.71161711       0.00405949       0.00000000
Si       0.00268785       2.71023823      -2.71287708       0.00000000
Si      -2.71181259      -0.00390960      -2.71270506       0.00000000
