10
Lattice="16.28999089631971 0.0 0.0 0.0 16.28999089631971 0.0 0.0 0.0 34.40246978574605" Properties=species:S:1:pos:R:3:initial_magmoms:R:1 pbc="T T T"
Si       1.35734796       1.35817875      -1.35962077       0.00000000
Si      -1.35834165      -1.35850455      -1.35986159       0.00000000
Si       1.36174626      -1.36322865       1.35714379       0.00000000
Si      -1.36453185       1.36844145       1.35714379       0.00000000
Si      -0.01563840      -2.70117522       2.71961996       0.00000000
Si       2.71389771      -2.71423980      -0.00292421       0.00000000
Si      -2.71465031       2.71427238      -0.00254578       0.00000000
Si       2.71513575       2.71379997      -0.00213295       0.00000000
Si       2.71410948       0.00003258      -2.71669575       0.00000000
Si      -2.71632329      -2.71463076      -0.00443792       0.00000000
