10
Lattice="16.28999089631971 0.0 0.0 0.0 16.28999089631971 0.0 0.0 0.0 34.40246978574605" Properties=species:S:1:pos:R:3:initial_magmoms:R:1 pbc="T T T"
Si       1.34089506       1.36200690      -1.36316422       0.00000000
Si      -1.49607360       1.21917618       1.34916241       0.00000000
Si      -1.36651923      -1.36331010      -1.35910473       0.00000000
Si       1.58954562      -1.17385740       1.34720147       0.00000000
Si       0.13139514      -2.63645505       2.44484728       0.00000000
Si       2.68125255       2.72021823      -0.00805018       0.00000000
Si       2.69917155      -0.00013032      -2.71669575       0.00000000
Si       2.71699281      -2.70531288      -0.00467874       0.00000000
Si      -0.01312974       2.71371852      -2.71838147       0.00000000
Si      -0.01436778      -2.71432125      -2.71917273       0.00000000
