10
Lattice="16.28999089631971 0.0 0.0 0.0 16.28999089631971 0.0 0.0 0.0 34.40246978574605" Properties=species:S:1:pos:R:3:initial_magmoms:R:1 pbc="T T T"
Si       0.96518250       1.33120251       1.67261461       0.00000000
Si       1.49607360      -1.21917618      -1.34916241       0.00000000
Si      -1.24471890       1.49840307      -1.33113551       0.00000000
Si      -1.16942652      -1.27840662       1.68221291       0.00000000
Si      -2.51644662      -2.44742589       0.05752096       0.00000000
Si      -1.66045599       0.66775968       3.02728142       0.00000000
Si       0.67264668      -2.38777191       2.69147873       0.00000000
Si       2.02681809      -0.40013127       3.11562701       0.00000000
Si       0.12955437      -2.58248628      -2.70826714       0.00000000
Si      -2.59672374       0.14918382      -2.70826714       0.00000000
