10
Lattice="16.28999089631971 0.0 0.0 0.0 16.28999089631971 0.0 0.0 0.0 34.40246978574605" Properties=species:S:1:pos:R:3:initial_magmoms:R:1 pbc="T T T"
Si      -0.02780703      -0.93726144      -2.15707046       0.00000000
Si       2.33422668       0.23987025       0.23627629       0.00000000
Si      -0.45511002      -1.78277760       1.52347982       0.00000000
Si      -1.19454570       2.11794435      -0.23710195       0.00000000
Si      -2.37141675      -0.63980604      -2.50367554       0.00000000
Si      -1.41773499      -0.48342204       3.28158462       0.00000000
Si       1.68091623       0.26357220      -3.40416069       0.00000000
Si      -0.56117421       2.93550687      -2.38846160       0.00000000
Si      -2.19339963      -3.09550725       0.56667780       0.00000000
Si       3.04222266       2.24357283      -0.89119648       0.00000000
