10
Lattice="16.28999089631971 0.0 0.0 0.0 16.28999089631971 0.0 0.0 0.0 34.40246978574605" Properties=species:S:1:pos:R:3:initial_magmoms:R:1 pbc="T T T"
Si      -2.22555609       0.01578501       0.58030118       0.00000000
Si       1.12249503       0.73074401      -1.87823829       0.00000000
Si       0.96446574       0.62759898       2.03965477       0.00000000
Si       0.69250419      -2.23593282      -0.36614569       0.00000000
Si       3.19632606       0.25713765      -0.74446986       0.00000000
Si      -0.09980883      -2.93878116       1.73013557       0.00000000
Si       3.06341595       1.35532215       1.34689185       0.00000000
Si      -2.39539563      -2.12120235       1.67278663       0.00000000
Si       1.17460674      -1.50104205       3.09519194       0.00000000
Si       0.53875917      -0.81083475      -3.60200940       0.00000000
