10
Lattice="16.28999089631971 0.0 0.0 0.0 16.28999089631971 0.0 0.0 0.0 34.40246978574605" Properties=species:S:1:pos:R:3:initial_magmoms:R:1 pbc="T T T"
Si      -2.18261565       0.21950775       0.88187340       0.00000000
Si       1.47958812      -0.21330126       1.90139117       0.00000000
Si       0.25047504      -2.26377732      -0.81988012       0.00000000
Si       0.78905502       1.62217449      -1.66370437       0.00000000
Si      -1.86411357       0.31472280      -1.89812293       0.00000000
Si      -0.32431761       3.48878043      -0.37887461       0.00000000
Si       0.95513157       0.04992885      -3.49959319       0.00000000
Si       2.84488560       1.68911010       1.74568550       0.00000000
Si      -1.40853114      -3.34010879       0.92436048       0.00000000
Si      -1.95755301       0.70506378       3.26097753       0.00000000
