10
Lattice="16.28999089631971 0.0 0.0 0.0 16.28999089631971 0.0 0.0 0.0 34.40246978574605" Properties=species:S:1:pos:R:3:initial_magmoms:R:1 pbc="T T T"
Si      -0.06701706      -1.08961759      -2.06480299       0.00000000
Si       1.59231492      -0.77288068       1.56015288       0.00000000
Si      -1.76076818       0.60201813       1.47239213       0.00000000
Si       0.51214131       2.27160303      -0.63868221       0.00000000
Si       3.16236141       0.24855445       0.13891725       0.00000000
Si       2.15363574       2.27627826       1.03437964       0.00000000
Si       1.30691412       1.14883107       2.96160707       0.00000000
Si      -0.72501088       2.36395104       2.55906355       0.00000000
Si      -1.94883297      -0.04595083      -3.08174056       0.00000000
Si      -3.49567829       1.14208701      -0.02941413       0.00000000
