10
Lattice="16.28999089631971 0.0 0.0 0.0 16.28999089631971 0.0 0.0 0.0 34.40246978574605" Properties=species:S:1:pos:R:3:initial_magmoms:R:1 pbc="T T T"
Si      -1.34082990      -1.36296801      -1.39147747       0.00000000
Si       1.36866951       1.35348723      -1.38583546       0.00000000
Si       1.44888147      -1.29565773       1.42618958       0.00000000
Si      -1.57262031       1.31180112       1.50194387       0.00000000
Si      -0.24017976       1.69999182       3.40945867       0.00000000
Si      -2.68205076       2.71710684      -0.03543456       0.00000000
Si      -2.72341107      -2.68082901      -0.02373772       0.00000000
Si       2.71779102      -2.69477325      -0.04410399       0.00000000
Si       2.73613356       2.70348840      -0.01919659       0.00000000
Si      -2.69511534      -0.00667890      -2.74858686       0.00000000
