10
Lattice="16.28999089631971 0.0 0.0 0.0 16.28999089631971 0.0 0.0 0.0 34.40246978574605" Properties=species:S:1:pos:R:3:initial_magmoms:R:1 pbc="T T T"
Si       1.47440790      -1.27586538       1.24537010       0.00000000
Si       1.38258117       1.31786100      -1.36773976       0.00000000
Si      -1.33138170      -1.39973454      -1.36061844       0.00000000
Si      -1.56949263       1.36718712       1.55196508       0.00000000
Si       0.06978636      -1.62720810       3.06164951       0.00000000
Si      -2.69604387       2.67374286      -0.02098552       0.00000000
Si       0.02829573       2.67415011      -2.72484914       0.00000000
Si       2.72341107       2.68082901       0.02373772       0.00000000
Si      -2.68929981      -0.04171869      -2.72670688       0.00000000
Si      -2.69469180      -2.74953046       0.04183343       0.00000000
