10
Lattice="16.28999089631971 0.0 0.0 0.0 16.28999089631971 0.0 0.0 0.0 34.40246978574605" Properties=species:S:1:pos:R:3:initial_magmoms:R:1 pbc="T T T"
Si      -2.38379715      -0.09982512       0.02948293       0.00000000
Si       0.86444514      -1.39851279       1.80028225       0.00000000
Si       0.87905727      -0.45499599      -2.23203349       0.00000000
Si       1.42366455       1.88206515       0.65292484       0.00000000
Si       2.76302835      -0.10608048       1.33010343       0.00000000
Si      -2.21772060      -1.67207076      -1.80640589       0.00000000
Si      -0.32796657      -0.03288951       3.43887280       0.00000000
Si      -0.17154999       2.95371909       2.02568736       0.00000000
Si      -0.81309906      -1.32072804      -3.62268530       0.00000000
Si      -3.17285217      -1.72199961       1.69318730       0.00000000
