10
Lattice="16.28999089631971 0.0 0.0 0.0 16.28999089631971 0.0 0.0 0.0 34.40246978574605" Properties=species:S:1:pos:R:3:initial_magmoms:R:1 pbc="T T T"
Si      -1.36529748      -1.90241136       0.15570567       0.00000000
Si       1.19241171      -1.36562328      -1.63859055       0.00000000
Si      -1.60021557       1.82366550      -0.32647962       0.00000000
Si       1.49990175       0.43199451       1.92991083       0.00000000
Si       0.15641658       2.98660860      -1.41318544       0.00000000
Si       0.49529745      -3.32538521      -0.46295429       0.00000000
Si       0.32796657       0.03288951      -3.43887280       0.00000000
Si       0.59508999       2.51209719       2.63137758       0.00000000
Si      -2.60130123      -1.62898371       2.12889483       0.00000000
Si      -2.84488560      -1.68911010      -1.74568550       0.00000000
