10
Lattice="16.28999089631971 0.0 0.0 0.0 16.28999089631971 0.0 0.0 0.0 34.40246978574605" Properties=species:S:1:pos:R:3:initial_magmoms:R:1 pbc="T T T"
Si       0.90481176      -2.08010268      -0.70146675       0.00000000
Si      -2.24819919      -0.42617898       0.75124715       0.00000000
Si       1.11860172       0.22103901       2.20949986       0.00000000
Si       0.81406017       1.16717850      -2.11633792       0.00000000
Si       0.96161499       2.18087262       1.06599552       0.00000000
Si       3.13005834      -1.29257892      -0.97283358       0.00000000
Si      -0.59508999      -2.51209719      -2.63137758       0.00000000
Si      -3.54473658       0.15754059      -1.12716315       0.00000000
Si      -2.19530556      -0.68843169      -2.95785720       0.00000000
Si      -2.54368350       0.69221097       2.80259877       0.00000000
