10
Lattice="16.28999089631971 0.0 0.0 0.0 16.28999089631971 0.0 0.0 0.0 34.40246978574605" Properties=species:S:1:pos:R:3:initial_magmoms:R:1 pbc="T T T"
Si      -1.92502188      -0.03067407       1.34658222       0.00000000
Si       0.29548431      -1.11838995      -2.05135161       0.00000000
Si       2.00469627      -0.67137606       1.05471151       0.00000000
Si      -0.44064450       2.24901369      -0.66706426       0.00000000
Si      -3.42296883       0.08957871      -0.44241601       0.00000000
Si       2.11730904       0.88446555       2.77837942       0.00000000
Si       1.67400927       2.89632942      -1.60449769       0.00000000
Si       3.66228522      -0.47117196      -0.59309891       0.00000000
Si      -0.89723691       3.38195061       1.32112438       0.00000000
Si      -2.63309931       2.02971771      -1.72800262       0.00000000
