10
Lattice="16.28999089631971 0.0 0.0 0.0 16.28999089631971 0.0 0.0 0.0 34.40246978574605" Properties=species:S:1:pos:R:3:initial_magmoms:R:1 pbc="T T T"
Si       1.12744719      -1.53145548      -1.35188021       0.00000000
Si      -1.45815048      -1.46259765       1.09764581       0.00000000
Si      -1.58954562       1.17385740      -1.34720147       0.00000000
Si       1.15662258       1.34488611       1.77090252       0.00000000
Si       2.39213763       2.57781105       0.04152380       0.00000000
Si      -2.41297254       0.00526167       2.69343967       0.00000000
Si       2.47505373      -0.19132605      -2.70806073       0.00000000
Si       2.23687764      -2.93676120       0.18549822       0.00000000
Si       0.13914918      -3.43368765       1.36925347       0.00000000
Si      -0.24865056       2.53586430      -2.71036569       0.00000000
