10
Lattice="16.28999089631971 0.0 0.0 0.0 16.28999089631971 0.0 0.0 0.0 34.40246978574605" Properties=species:S:1:pos:R:3:initial_magmoms:R:1 pbc="T T T"
Si       0.33223455       0.91417851      -2.11444578       0.00000000
Si       2.30413905       0.00949707       0.48118761       0.00000000
Si      -1.22982984      -2.05586316       0.22206807       0.00000000
Si      -1.11827592       1.91023056       1.02251078       0.00000000
Si       1.35483930       2.87433792      -1.25889028       0.00000000
Si       2.25619758      -0.91961937       2.59229635       0.00000000
Si      -2.95428924      -1.55020527      -1.34819914       0.00000000
Si       2.82220992       2.28881016       0.47004121       0.00000000
Si      -2.05091100      -1.78623108       2.46879142       0.00000000
Si      -1.77158637       1.93393251      -2.61792621       0.00000000
