10
Lattice="16.28999089631971 0.0 0.0 0.0 16.28999089631971 0.0 0.0 0.0 34.40246978574605" Properties=species:S:1:pos:R:3:initial_magmoms:R:1 pbc="T T T"
Si      -0.45659241       1.13293692       1.98818864       0.00000000
Si       0.44064450      -2.24901369       0.66706426       0.00000000
Si       2.11465377       0.64731573      -0.93743342       0.00000000
Si      -2.19245481      -0.21929598      -1.06093836       0.00000000
Si      -1.48437738      -2.27968776       2.01364649       0.00000000
Si      -1.37137365      -0.48892806      -3.30766171       0.00000000
Si      -1.92518478      -0.24720075       3.12175066       0.00000000
Si       1.47597174       0.75310299       3.28898116       0.00000000
Si      -2.98232433      -2.15943498       0.22464825       0.00000000
Si       0.73612881      -3.36740364      -1.38428735       0.00000000
