10
Lattice="16.28999089631971 0.0 0.0 0.0 16.28999089631971 0.0 0.0 0.0 34.40246978574605" Properties=species:S:1:pos:R:3:initial_magmoms:R:1 pbc="T T T"
Si      -0.11261277      -1.55584161      -1.72366791       0.00000000
Si      -1.08198180       2.11765113      -0.15646252       0.00000000
Si      -0.94952781      -1.13590170       1.86815836       0.00000000
Si       2.13232842       0.71695548       0.83876708       0.00000000
Si       0.40237929       0.81485838       2.57279014       0.00000000
Si      -1.55844801       2.30555628       2.15287336       0.00000000
Si      -2.11730904      -0.88446555      -2.77837942       0.00000000
Si       0.49205574       3.59541477      -1.00331419       0.00000000
Si       2.50354494       2.91398778      -0.02274005       0.00000000
Si      -0.16000038      -3.29764986       2.11788603       0.00000000
