10
Lattice="16.28999089631971 0.0 0.0 0.0 16.28999089631971 0.0 0.0 0.0 34.40246978574605" Properties=species:S:1:pos:R:3:initial_magmoms:R:1 pbc="T T T"
Si       1.33618725       1.36472733      -1.34246425       0.00000000
Si      -1.35669636       1.35610992       1.35986159       0.00000000
Si       1.35734796      -1.35933534       1.36096247       0.00000000
Si      -1.36374993      -1.35133695      -1.37721420       0.00000000
Si      -0.00030951       2.71326240       2.71755581       0.00000000
Si       2.71340901       2.71744893       0.00278660       0.00000000
Si       2.71256193      -2.71841004       0.00313063       0.00000000
Si       2.71432125      -0.00166158       2.71793424       0.00000000
Si      -2.71855665       2.71497285      -0.00127289       0.00000000
Si      -2.71590138      -0.00205254       2.71783103       0.00000000
