10
Lattice="16.28999089631971 0.0 0.0 0.0 16.28999089631971 0.0 0.0 0.0 34.40246978574605" Properties=species:S:1:pos:R:3:initial_magmoms:R:1 pbc="T T T"
Si       1.46404746      -1.18465767      -1.30985069       0.00000000
Si      -1.33618725      -1.36472733       1.34246425       0.00000000
Si       1.37722176       1.35272160       1.34525085       0.00000000
Si      -1.28093157       1.37016819      -1.44109962       0.00000000
Si       2.39417388       0.43764714      -2.78523037       0.00000000
Si      -2.66299146       2.70853895      -0.01553960       0.00000000
Si       0.48060387       2.37184029      -2.93058088       0.00000000
Si      -2.69288361      -0.00861741       2.70232583       0.00000000
Si       0.21761811      -2.52451017      -2.86187911       0.00000000
Si       0.02256165       2.70695436       2.70301388       0.00000000
