10
Lattice="16.28999089631971 0.0 0.0 0.0 16.28999089631971 0.0 0.0 0.0 34.40246978574605" Properties=species:S:1:pos:R:3:initial_magmoms:R:1 pbc="T T T"
Si       1.30043070      -1.31626458       1.39677546       0.00000000
Si      -1.34035749      -1.35821133      -1.35511404       0.00000000
Si       1.37766159       1.35306200      -1.35394436       0.00000000
Si      -1.44041067       1.17340128       1.49203595       0.00000000
Si       2.35887345       0.34389819       2.73554832       0.00000000
Si       0.10713933       1.56025198       3.38575536       0.00000000
Si      -2.68125255      -2.72021823       0.00805018       0.00000000
Si      -2.69438229      -0.00649971      -2.71033129       0.00000000
Si      -2.70031185       2.71699348       0.05690172       0.00000000
Si       0.02032992       2.70958316      -2.71002167       0.00000000
