10
Lattice="16.28999089631971 0.0 0.0 0.0 16.28999089631971 0.0 0.0 0.0 34.40246978574605" Properties=species:S:1:pos:R:3:initial_magmoms:R:1 pbc="T T T"
Si       0.97702533       1.68441436       1.42685497       0.00000000
Si      -1.76153544      -1.00167210       1.48948126       0.00000000
Si      -0.06289569       1.56762158      -1.98708777       0.00000000
Si       1.91357001      -1.93419315       0.14535052       0.00000000
Si      -2.14920486      -1.72462230      -1.64254684       0.00000000
Si       2.24946981       0.33863652       2.91871202       0.00000000
Si       1.08517464       0.14608872      -3.55188498       0.00000000
Si      -0.48060387      -2.37184029       2.93058088       0.00000000
Si       2.90219382       2.55781412       0.26000063       0.00000000
Si       2.16720531       2.67609581      -2.00229367       0.00000000
