10
Lattice="16.28999089631971 0.0 0.0 0.0 16.28999089631971 0.0 0.0 0.0 34.40246978574605" Properties=species:S:1:pos:R:3:initial_magmoms:R:1 pbc="T T T"
Si      -0.73498851       0.11828169      -2.26229430       0.00000000
Si      -1.92516849      -0.87339975       1.16685433       0.00000000
Si       0.80715321       1.91111022       1.26872010       0.00000000
Si       1.70307063      -1.87013273      -0.04852853       0.00000000
Si       2.08554942       0.49734999       2.64724848       0.00000000
Si       0.29141181      -1.86526202      -2.90507040       0.00000000
Si      -0.65272401      -2.21917760       2.65871139       0.00000000
Si       3.49691470      -0.75788899       1.13410660       0.00000000
Si      -2.96508951      -0.99019254      -2.24708840       0.00000000
Si       0.69875955      -3.56883668       1.29855738       0.00000000
