10
Lattice="16.28999089631971 0.0 0.0 0.0 16.28999089631971 0.0 0.0 0.0 34.40246978574605" Properties=species:S:1:pos:R:3:initial_magmoms:R:1 pbc="T T T"
Si       1.27244448      -1.34577784       1.49185706       0.00000000
Si      -0.97702533      -1.68441436      -1.42685497       0.00000000
Si       1.92516849       0.87339975      -1.16685433       0.00000000
Si      -1.42674336       1.36965831       1.46134549       0.00000000
Si      -1.03992102      -0.11679278      -3.41394273       0.00000000
Si       1.19017998       0.99168144      -3.42914863       0.00000000
Si       2.62392804      -2.69543692       0.13170305       0.00000000
Si      -2.73856077      -2.68608646       0.06262629       0.00000000
Si       2.63340882       0.00474691       2.84567412       0.00000000
Si       2.73232170       2.78450997       0.10186577       0.00000000
