10
Lattice="16.28999089631971 0.0 0.0 0.0 16.28999089631971 0.0 0.0 0.0 34.40246978574605" Properties=species:S:1:pos:R:3:initial_magmoms:R:1 pbc="T T T"
Si      -1.19728242       1.82376324       0.85211525       0.00000000
Si       1.73491011      -0.54006889       1.50180626       0.00000000
Si      -0.61815663      -2.30261498      -0.16950106       0.00000000
Si       0.45325296       0.75763161      -2.24438398       0.00000000
Si       0.44821935       3.45066183       0.36728097       0.00000000
Si       1.54684531      -1.18803785      -3.05232644       0.00000000
Si      -0.28219167      -2.61344447      -2.53016546       0.00000000
Si       3.49567829      -1.14208701       0.02941413       0.00000000
Si      -2.76152967      -2.31652664       0.76480173       0.00000000
Si      -1.80828774       0.83755035      -3.16716194       0.00000000
