10
Lattice="16.28999089631971 0.0 0.0 0.0 16.28999089631971 0.0 0.0 0.0 34.40246978574605" Properties=species:S:1:pos:R:3:initial_magmoms:R:1 pbc="T T T"
Si       1.02640032      -1.98354370      -0.64277610       0.00000000
Si       0.73498851      -0.11828169       2.26229430       0.00000000
Si       0.17410752       1.85955237      -1.60831636       0.00000000
Si      -2.23010100      -1.10847423       0.01520590       0.00000000
Si      -1.08203067      -2.53000709      -1.54959131       0.00000000
Si      -2.04185376       2.57517207      -1.33216758       0.00000000
Si      -1.19017998      -0.99168144       3.42914863       0.00000000
Si       3.29268697       1.88542089      -0.41320830       0.00000000
Si       2.43805914      -1.98841442       2.21376577       0.00000000
Si      -2.16720531      -2.67609581       2.00229367       0.00000000
