10
Lattice="16.28999089631971 0.0 0.0 0.0 16.28999089631971 0.0 0.0 0.0 34.40246978574605" Properties=species:S:1:pos:R:3:initial_magmoms:R:1 pbc="T T T"
Si      -1.35827649      -1.35659862      -1.35748781       0.00000000
Si       1.35749457      -1.35749457       1.35759102       0.00000000
Si      -1.35757602       1.35786924       1.35796945       0.00000000
Si       1.35943308       1.36023129      -1.35704058       0.00000000
Si      -2.71226871       0.00097740       2.71552607       0.00000000
Si      -0.00188964       2.71366965      -2.71428758       0.00000000
Si       0.00104256      -2.71495656       2.71425318       0.00000000
Si      -2.71511946      -2.71441899       0.00051604       0.00000000
Si      -2.71534752       2.71500543       0.00044723       0.00000000
Si       2.71521720      -2.71533123       0.00055044       0.00000000
