10
Lattice="16.28999089631971 0.0 0.0 0.0 16.28999089631971 0.0 0.0 0.0 34.40246978574605" Properties=species:S:1:pos:R:3:initial_magmoms:R:1 pbc="T T T"
Si      -1.00572831      -1.79530461       1.18609461       0.00000000
Si       1.26890955      -1.39911552      -1.47029358       0.00000000
Si      -1.44888147       1.29565773      -1.42618958       0.00000000
Si       1.85802111       0.92478330       1.48219684       0.00000000
Si       0.88822854      -3.39786594       1.13387164       0.00000000
Si       2.72202905      -2.57417838      -0.11442268       0.00000000
Si       2.66001220       2.66950746      -0.01417383       0.00000000
Si      -2.69788464      -2.66103666      -0.20455720       0.00000000
Si       2.63930580      -0.06996555      -2.81828630       0.00000000
Si      -0.08021196       2.64914496      -2.81202505       0.00000000
