10
Lattice="16.28999089631971 0.0 0.0 0.0 16.28999089631971 0.0 0.0 0.0 34.40246978574605" Properties=species:S:1:pos:R:3:initial_magmoms:R:1 pbc="T T T"
Si       0.09915723      -1.72022400      -1.59256002       0.00000000
Si       2.12868502       0.96516621      -0.33745401       0.00000000
Si      -0.25516656      -1.42047171       1.91239996       0.00000000
Si      -1.74936681       1.65651381       0.22014153       0.00000000
Si       2.33498321      -2.54958048      -1.32040193       0.00000000
Si      -1.82573433      -3.07371123       1.22311169       0.00000000
Si      -0.03505608      -0.76963734      -3.69988449       0.00000000
Si       1.90781868       2.48699430      -2.17406529       0.00000000
Si      -1.54634454      -3.34712259      -1.10772574       0.00000000
Si       0.03176550      -0.10130751       3.86357153       0.00000000
