10
Lattice="16.28999089631971 0.0 0.0 0.0 16.28999089631971 0.0 0.0 0.0 34.40246978574605" Properties=species:S:1:pos:R:3:initial_magmoms:R:1 pbc="T T T"
Si       1.54801168      -1.62737100       0.50581980       0.00000000
Si       0.28693206       1.31916420       1.95117157       0.00000000
Si      -1.57056777      -1.65323952      -0.68928827       0.00000000
Si       0.25516656       1.42047171      -1.91239996       0.00000000
Si       1.31415570      -0.35072370       3.22564793       0.00000000
Si       0.35432379      -0.29975229      -3.50495998       0.00000000
Si      -1.29117798      -1.92665088      -3.02012571       0.00000000
Si      -1.49420025       3.07698552      -1.69225843       0.00000000
Si       2.67677184      -2.52855009      -1.28376328       0.00000000
Si      -3.78652905      -0.93761982      -0.41313949       0.00000000
