10
Lattice="16.28999089631971 0.0 0.0 0.0 16.28999089631971 0.0 0.0 0.0 34.40246978574605" Properties=species:S:1:pos:R:3:initial_magmoms:R:1 pbc="T T T"
Si       1.36132272      -1.35343836       1.35724700       0.00000000
Si      -1.35521397       1.35907470       1.35783184       0.00000000
Si      -1.36269108      -1.33768593      -1.37741030       0.00000000
Si       1.36787130       1.36671471      -1.35903593       0.00000000
Si      -2.71471221      -2.71218726       0.00027522       0.00000000
Si       0.00188964      -2.71366965       2.71428758       0.00000000
Si      -2.71345788       0.00133578       2.71473481       0.00000000
Si      -2.71256193       2.71841004      -0.00313063       0.00000000
Si       2.71445157       2.71665072       0.00189214       0.00000000
Si       0.00175932       2.71674846       2.71480362       0.00000000
