10
Lattice="16.28999089631971 0.0 0.0 0.0 16.28999089631971 0.0 0.0 0.0 34.40246978574605" Properties=species:S:1:pos:R:3:initial_magmoms:R:1 pbc="T T T"
Si      -1.35220032       1.34737848       1.35693737       0.00000000
Si       1.35682668       1.35482301      -1.35821027       0.00000000
Si       1.35091341      -1.35637056       1.36271699       0.00000000
Si      -1.35817875      -1.35964485      -1.35759102       0.00000000
Si      -2.69980686       0.00724905       2.71311789       0.00000000
Si      -0.00073305       2.71290402      -2.71504443       0.00000000
Si      -2.71287144      -2.71653669      -0.00003440       0.00000000
Si       2.71604799       2.71388142       0.00192654       0.00000000
Si      -2.71762812       2.71243161       0.00110088       0.00000000
Si       2.71505430      -0.00245979      -2.71538846       0.00000000
