10
Lattice="16.28999089631971 0.0 0.0 0.0 16.28999089631971 0.0 0.0 0.0 34.40246978574605" Properties=species:S:1:pos:R:3:initial_magmoms:R:1 pbc="T T T"
Si      -1.26252387      -1.93811904      -0.07692397       0.00000000
Si       1.51795107      -0.58777578       1.75528379       0.00000000
Si      -1.55271393       1.56142908       0.94262820       0.00000000
Si       0.77975343       0.78320691      -2.14152054       0.00000000
Si       3.39552411       0.57837645       0.79892900       0.00000000
Si      -2.54304819      -1.71949095       1.86760792       0.00000000
Si      -2.20001337       0.37392066       2.90628787       0.00000000
Si       1.91182698      -2.96982990       1.68451787       0.00000000
Si      -2.59496442      -2.32630974      -1.98443877       0.00000000
Si       1.71378945      -0.93462246      -3.50557923       0.00000000
