10
Lattice="16.28999089631971 0.0 0.0 0.0 16.28999089631971 0.0 0.0 0.0 34.40246978574605" Properties=species:S:1:pos:R:3:initial_magmoms:R:1 pbc="T T T"
Si       0.93403602      -1.71782937      -1.36405869       0.00000000
Si      -0.77975343      -0.78320691       2.14152054       0.00000000
Si      -1.77793947       1.00224225      -1.35291228       0.00000000
Si       1.75508460       1.85179833       0.06570875       0.00000000
Si       2.29649583      -0.36502632      -2.73836932       0.00000000
Si      -0.43631136       2.36522655      -2.73750926       0.00000000
Si       2.30679613      -3.04746804       0.06715366       0.00000000
Si       2.61577068      -0.20483046       2.94044954       0.00000000
Si      -2.33246736       0.77822217       3.08414874       0.00000000
Si      -2.04227730      -2.72132595       2.06459657       0.00000000
