10
Lattice="16.28999089631971 0.0 0.0 0.0 16.28999089631971 0.0 0.0 0.0 34.40246978574605" Properties=species:S:1:pos:R:3:initial_magmoms:R:1 pbc="T T T"
Si      -0.86856651      -0.08586459       2.18844553       0.00000000
Si      -1.45389879       0.80262459      -1.72628250       0.00000000
Si      -0.68108490      -2.31844167      -0.56874195       0.00000000
Si       2.05735274       1.38738672       0.30054014       0.00000000
Si       0.89986027      -2.65321746      -2.33427768       0.00000000
Si       3.56173424      -0.20393451       1.34699505       0.00000000
Si       2.75730146      -1.05308334      -2.44581055       0.00000000
Si       0.65250639      -1.39660686       3.52467261       0.00000000
Si      -3.64821066       0.13947498      -1.23752633       0.00000000
Si      -3.14242245      -2.11976883      -0.72805987       0.00000000
