10
Lattice="16.28999089631971 0.0 0.0 0.0 16.28999089631971 0.0 0.0 0.0 34.40246978574605" Properties=species:S:1:pos:R:3:initial_magmoms:R:1 pbc="T T T"
Si       1.43371548       0.98139105      -1.56452199       0.00000000
Si       1.85668014      -1.19990511       0.92583978       0.00000000
Si      -1.59871689      -1.83752829      -0.13974291       0.00000000
Si      -1.29885057       2.15699148       0.92886720       0.00000000
Si      -2.22897699       0.53468667       2.40424688       0.00000000
Si       0.48005001      -2.35545255       2.41996538       0.00000000
Si      -0.12456963       1.18897452      -3.35871500       0.00000000
Si      -3.47540634      -0.80516583       0.85221846       0.00000000
Si       0.38853279       3.08016207       2.34207470       0.00000000
Si       3.16019551       0.29418111       2.27217229       0.00000000
