10
Lattice="16.28999089631971 0.0 0.0 0.0 16.28999089631971 0.0 0.0 0.0 34.40246978574605" Properties=species:S:1:pos:R:3:initial_magmoms:R:1 pbc="T T T"
Si       1.35148356      -1.34965908      -1.36015401       0.00000000
Si       1.36096434       1.35052475       1.35381707       0.00000000
Si      -1.35285192      -1.35775521       1.35711971       0.00000000
Si      -1.27244448       1.34577784      -1.49185706       0.00000000
Si       0.65272401       2.21917760      -2.65871139       0.00000000
Si      -0.33589980      -2.27282967      -2.77336151       0.00000000
Si       2.35579464       0.34904487      -2.70723992       0.00000000
Si      -2.24946981      -0.33863652      -2.91871202       0.00000000
Si      -2.69918784       2.71543616      -0.03051157       0.00000000
Si      -2.70751203      -0.00352245       2.71488274       0.00000000
