10
Lattice="16.28999089631971 0.0 0.0 0.0 16.28999089631971 0.0 0.0 0.0 34.40246978574605" Properties=species:S:1:pos:R:3:initial_magmoms:R:1 pbc="T T T"
Si       2.11210506       0.02083491      -0.99010363       0.00000000
Si       0.05075964      -2.32371963       0.31966793       0.00000000
Si      -0.52114968       1.08903537       2.03549207       0.00000000
Si       0.37033686       1.61271000      -2.09187775       0.00000000
Si      -1.95287778       1.20459663      -2.72904625       0.00000000
Si       3.03476251       1.88156016       0.01637558       0.00000000
Si      -2.75548608       0.38367837       2.51007440       0.00000000
Si      -2.14355223      -2.98686924       0.80842409       0.00000000
Si       0.25725168      -3.20619780      -2.23867317       0.00000000
Si      -0.74727117       3.46931618       1.76109781       0.00000000
