10
Lattice="16.28999089631971 0.0 0.0 0.0 16.28999089631971 0.0 0.0 0.0 34.40246978574605" Properties=species:S:1:pos:R:3:initial_magmoms:R:1 pbc="T T T"
Si       2.26004432      -0.40902561      -0.37914983       0.00000000
Si      -0.58129236      -1.85438844       1.31524156       0.00000000
Si      -1.19711952       0.44753517      -2.00669718       0.00000000
Si      -0.30372705       2.08798704       1.10163650       0.00000000
Si       3.23334413       0.07573221       1.75862084       0.00000000
Si       3.02906753       1.32766758      -1.77613170       0.00000000
Si      -3.43145592      -0.25782183      -1.53211485       0.00000000
Si      -2.92859991      -1.69518627       1.67615807       0.00000000
Si      -1.99275570       3.26224747      -0.07183240       0.00000000
Si      -0.03987792      -3.85370901       0.19220671       0.00000000
