10
Lattice="16.28999089631971 0.0 0.0 0.0 16.28999089631971 0.0 0.0 0.0 34.40246978574605" Properties=species:S:1:pos:R:3:initial_magmoms:R:1 pbc="T T T"
Si      -1.74224971      -0.52804035      -1.37307214       0.00000000
Si       0.76421277      -1.98342153       1.02110028       0.00000000
Si      -1.97610569       0.74860695       1.34675600       0.00000000
Si       1.89374508       0.96629022      -1.44917045       0.00000000
Si       1.92158469      -0.72527967       2.61148060       0.00000000
Si      -0.64573234       2.16539712       2.62661769       0.00000000
Si      -0.61348954      -1.42921944      -3.16265522       0.00000000
Si       2.47005270      -2.52501516      -0.65340647       0.00000000
Si       0.73767636       3.49001847       1.03871435       0.00000000
Si       3.67271082      -0.49694274      -0.80467422       0.00000000
