10
Lattice="16.28999089631971 0.0 0.0 0.0 16.28999089631971 0.0 0.0 0.0 34.40246978574605" Properties=species:S:1:pos:R:3:initial_magmoms:R:1 pbc="T T T"
Si      -1.41395408      -1.35133695       1.26824776       0.00000000
Si      -1.44676051       1.23771420      -1.38917251       0.00000000
Si       1.26861633      -1.47300696      -1.40331193       0.00000000
Si       1.34702010       1.16901927       1.62469195       0.00000000
Si       2.51644662       2.44742589      -0.05752096       0.00000000
Si       0.19810269      -2.95582050       2.07447009       0.00000000
Si      -0.08027712       2.59660971      -2.76578810       0.00000000
Si      -2.46055889       0.02231730       2.90938409       0.00000000
Si       2.64600099      -0.13506039      -2.76578810       0.00000000
Si       2.60972316      -2.84866488      -0.08222195       0.00000000
