10
Lattice="16.28999089631971 0.0 0.0 0.0 16.28999089631971 0.0 0.0 0.0 34.40246978574605" Properties=species:S:1:pos:R:3:initial_magmoms:R:1 pbc="T T T"
Si      -1.41356801      -0.05615163      -1.86568138       0.00000000
Si       1.33998282       1.10931642       1.65193872       0.00000000
Si       0.71356716      -2.19553362       0.92948645       0.00000000
Si      -1.43628767       2.00472885       0.33924294       0.00000000
Si      -3.29114105      -1.22230386      -0.90932659       0.00000000
Si       0.01361844       0.24493644       3.67583715       0.00000000
Si       1.62056178       3.31828929       0.58814495       0.00000000
Si       2.27050020      -2.90046708      -0.65247761       0.00000000
Si      -1.66759394       2.43054945      -2.34397919       0.00000000
Si      -0.36696320      -1.42980588      -3.50681772       0.00000000
