10
Lattice="16.28999089631971 0.0 0.0 0.0 16.28999089631971 0.0 0.0 0.0 34.40246978574605" Properties=species:S:1:pos:R:3:initial_magmoms:R:1 pbc="T T T"
Si       1.98643518       1.01468781      -0.76115507       0.00000000
Si      -0.70517781       1.13974614       1.93995636       0.00000000
Si       0.60735636      -2.30909121      -0.05765857       0.00000000
Si      -1.50961059       0.29059731      -1.85284925       0.00000000
Si       0.04732245      -0.41433615      -3.43481331       0.00000000
Si       0.45568017      -2.50258383      -2.48134832       0.00000000
Si      -2.20955931       2.73106737       0.89350144       0.00000000
Si       1.46041479       3.29799195      -0.78379191       0.00000000
Si      -1.47720978      -0.65461365       3.33907118       0.00000000
Si       3.71089458       0.50902992       0.80911214       0.00000000
