10
Lattice="16.28999089631971 0.0 0.0 0.0 16.28999089631971 0.0 0.0 0.0 34.40246978574605" Properties=species:S:1:pos:R:3:initial_magmoms:R:1 pbc="T T T"
Si       1.55693304      -0.70493346      -1.58196405       0.00000000
Si       1.50961059      -0.29059731       1.85284925       0.00000000
Si      -1.85744119      -1.60013412       0.11153287       0.00000000
Si      -0.71356716       2.19553362      -0.92948645       0.00000000
Si       0.62641566       3.30485004       0.72245227       0.00000000
Si       1.96529076      -2.79318114      -0.62849907       0.00000000
Si       3.49604577       0.72409050       1.09169418       0.00000000
Si      -0.69994872       2.44047006       2.74635070       0.00000000
Si       0.53152641      -0.83875581      -3.63008184       0.00000000
Si       2.11696695      -2.59968852       1.79519068       0.00000000
