10
Lattice="16.28999089631971 0.0 0.0 0.0 16.28999089631971 0.0 0.0 0.0 34.40246978574605" Properties=species:S:1:pos:R:3:initial_magmoms:R:1 pbc="T T T"
Si      -1.35694964       1.35728606       1.35731580       0.00000000
Si      -1.35837311      -1.35758438      -1.35662775       0.00000000
Si       1.35736099      -1.35746606       1.35786624       0.00000000
Si       1.35957643       1.35974585      -1.35693737       0.00000000
Si      -0.00108003       2.71258148      -2.71476921       0.00000000
Si      -2.71473894       2.71437338       0.00041283       0.00000000
Si       2.71550716      -0.00097577      -2.71408116       0.00000000
Si       2.71536055       2.71471547       0.00013761       0.00000000
Si       0.00092201      -2.71601934       2.71442519       0.00000000
Si       2.71394332      -0.00139931       2.71652374       0.00000000
