10
Lattice="16.28999089631971 0.0 0.0 0.0 16.28999089631971 0.0 0.0 0.0 34.40246978574605" Properties=species:S:1:pos:R:3:initial_magmoms:R:1 pbc="T T T"
Si       1.35860229      -1.35622395      -1.35569888       0.00000000
Si       1.35684297       1.35819504       1.35759102       0.00000000
Si      -1.35859089      -1.35702216       1.35776303       0.00000000
Si      -1.35933697       1.36049193      -1.36223536       0.00000000
Si       2.71254564      -2.71353933       0.00010321       0.00000000
Si      -2.71480085      -2.71218726       0.00048163       0.00000000
Si       2.71440270       0.00148239       2.71487242       0.00000000
Si      -0.00128691      -2.71520091       2.71463160       0.00000000
Si      -2.71580028       0.00105885       2.71497563       0.00000000
Si       2.71363707       2.71749914       0.00072245       0.00000000
