10
Lattice="16.28999089631971 0.0 0.0 0.0 16.28999089631971 0.0 0.0 0.0 34.40246978574605" Properties=species:S:1:pos:R:3:initial_magmoms:R:1 pbc="T T T"
Si      -2.13419200       0.54716481       0.75757721       0.00000000
Si       1.52966358       1.36634004       1.17900770       0.00000000
Si       0.28241973      -0.28157265      -2.39344997       0.00000000
Si      -0.28057896      -2.20897287       1.06379377       0.00000000
Si      -3.05684945      -1.31356044      -0.24890201       0.00000000
Si      -1.46391714       0.63477243       3.00725917       0.00000000
Si       0.89629209       0.54877752       3.33036735       0.00000000
Si       2.06303076      -2.50642827       1.41039884       0.00000000
Si      -1.62056178      -3.31828929      -0.58814495       0.00000000
Si      -1.66158000       0.92025468      -3.22585259       0.00000000
