10
Lattice="16.28999089631971 0.0 0.0 0.0 16.28999089631971 0.0 0.0 0.0 34.40246978574605" Properties=species:S:1:pos:R:3:initial_magmoms:R:1 pbc="T T T"
Si      -2.26004432       0.40902561       0.37914983       0.00000000
Si       0.76902321       1.73669319      -1.39698187       0.00000000
Si       0.97329981       0.48475782       2.13777067       0.00000000
Si       0.62599701      -1.97143209      -1.31654885       0.00000000
Si      -2.84133668      -1.44536283       1.69439139       0.00000000
Si       1.14708153       2.87875251       1.97556293       0.00000000
Si       3.12923244       1.65069828      -1.07387369       0.00000000
Si      -2.56377137       2.49701265       1.48078633       0.00000000
Si       2.90604315      -0.95066811       2.44481288       0.00000000
Si      -3.45716384       0.85656078      -1.62754735       0.00000000
