10
Lattice="16.28999089631971 0.0 0.0 0.0 16.28999089631971 0.0 0.0 0.0 34.56954931742767" Properties=species:S:1:pos:R:3:initial_magmoms:R:1 pbc="T T T"
Si       1.36195803       1.34796166      -1.37676764       0.00000000
Si      -1.35669636      -1.36582674      -1.37676764       0.00000000
Si       1.40147757      -1.33734856       1.41755973       0.00000000
Si      -1.41752322       1.40326621       1.43000478       0.00000000
Si       2.55598245       0.33244306       2.70907882       0.00000000
Si       2.70259245       2.70045520      -0.00404464       0.00000000
Si      -2.73256605       2.70104164      -0.01192650       0.00000000
Si      -2.71533123      -2.72177622      -0.00235073       0.00000000
Si       0.00317655       2.70390868      -2.73652705       0.00000000
Si      -2.66103666      -0.09579660       2.77970444       0.00000000
