10
Lattice="16.28999089631971 0.0 0.0 0.0 16.28999089631971 0.0 0.0 0.0 34.56954931742767" Properties=species:S:1:pos:R:3:initial_magmoms:R:1 pbc="T T T"
Si      -0.14669145       1.19744532      -2.09484672       0.00000000
Si      -0.80384634       1.28738241       1.89327157       0.00000000
Si      -1.72139688      -1.80983529       0.20952616       0.00000000
Si       2.43931347      -0.31244220      -0.51605452       0.00000000
Si       0.20952198       3.24395802       1.04908270       0.00000000
Si      -0.74008728      -0.71571744      -3.50414432       0.00000000
Si      -1.98360072      -2.21478025      -2.15444466       0.00000000
Si      -3.15320643       1.57060035       1.72526346       0.00000000
Si      -0.63591273      -3.83781716      -0.51138763       0.00000000
Si       3.26270781      -2.13177782       0.82545216       0.00000000
