10
Lattice="16.28999089631971 0.0 0.0 0.0 16.28999089631971 0.0 0.0 0.0 34.56954931742767" Properties=species:S:1:pos:R:3:initial_magmoms:R:1 pbc="T T T"
Si       1.24351344       1.49906281      -1.34969967       0.00000000
Si      -1.46562759      -1.36242948      -1.28913378       0.00000000
Si       0.26220384       0.40494496       2.36397081       0.00000000
Si       1.34768799      -1.62303690       1.64305703       0.00000000
Si       1.98360072       2.21478025       2.15444466       0.00000000
Si      -0.05429457      -2.62597962      -2.78205518       0.00000000
Si       2.66103666       0.09579660      -2.77970444       0.00000000
Si       1.83690927       3.41222557       0.05959794       0.00000000
Si      -2.75767546       0.07782873      -2.77158060       0.00000000
Si       2.95696080      -2.58215952       0.23178896       0.00000000
