10
Lattice="16.28999089631971 0.0 0.0 0.0 16.28999089631971 0.0 0.0 0.0 34.56954931742767" Properties=species:S:1:pos:R:3:initial_magmoms:R:1 pbc="T T T"
Si      -1.35687555      -1.35762489      -1.35716670       0.00000000
Si       1.35716877      -1.35725022       1.35813464       0.00000000
Si      -1.35777150       1.35716877       1.35816921       0.00000000
Si       1.35814617       1.35795069      -1.35761610       0.00000000
Si       0.00040725       2.71358820       2.71467909       0.00000000
Si       2.71459818       0.00117288       2.71422968       0.00000000
Si       2.71513575      -2.71471221       0.00065682       0.00000000
Si      -2.71500543      -2.71500543       0.00020742       0.00000000
Si       2.71581993       0.00206883      -2.71443710       0.00000000
Si       2.71542897       2.71484253       0.00020742       0.00000000
