10
Lattice="16.28999089631971 0.0 0.0 0.0 16.28999089631971 0.0 0.0 0.0 34.56954931742767" Properties=species:S:1:pos:R:3:initial_magmoms:R:1 pbc="T T T"
Si      -1.35718506      -1.35687555      -1.35754696       0.00000000
Si       1.35767376       1.35835794      -1.35699385       0.00000000
Si       1.35878148      -1.35594702       1.35975941       0.00000000
Si      -1.35681039       1.36093176       1.35858405       0.00000000
Si      -2.71456560      -2.71392866      -0.00062225       0.00000000
Si       2.71523349      -2.71351978      -0.00055311       0.00000000
Si       0.00039096      -2.71441736      -2.71471366       0.00000000
Si      -2.71450044       0.00060273      -2.71492107       0.00000000
Si       2.71564074       0.00089595      -2.71447167       0.00000000
Si       0.00050499       2.71560816      -2.71512849       0.00000000
