10
Lattice="16.28999089631971 0.0 0.0 0.0 16.28999089631971 0.0 0.0 0.0 34.56954931742767" Properties=species:S:1:pos:R:3:initial_magmoms:R:1 pbc="T T T"
Si      -1.34908893      -1.34793234      -1.36954260       0.00000000
Si       1.36503684       1.36676358      -1.36992287       0.00000000
Si       1.12769154      -1.49853339       1.48279251       0.00000000
Si      -1.35772263       1.33374375       1.50104524       0.00000000
Si       0.68504337       1.88185338       2.52776143       0.00000000
Si       2.30228199       0.11971521       2.72829950       0.00000000
Si      -0.81958248      -2.09634381       2.84770279       0.00000000
Si      -2.70075168       2.71801908      -0.00117537       0.00000000
Si       2.70713736      -2.71231758       0.00435577       0.00000000
Si       0.00772146      -2.70886410      -2.72812665       0.00000000
