10
Lattice="16.28999089631971 0.0 0.0 0.0 16.28999089631971 0.0 0.0 0.0 34.56954931742767" Properties=species:S:1:pos:R:3:initial_magmoms:R:1 pbc="T T T"
Si      -0.41717061      -2.19874275      -0.81767401       0.00000000
Si      -1.44052470       1.53824841      -1.11355494       0.00000000
Si       2.30384583       0.29442546      -0.53970011       0.00000000
Si      -0.30299400       0.23061753       2.38772011       0.00000000
Si      -0.34968114       3.54470400      -0.48086270       0.00000000
Si       3.17513277      -1.63149237       0.54025322       0.00000000
Si       2.15806662       0.79869870      -2.87833142       0.00000000
Si       1.67138658      -3.29817114      -0.35330099       0.00000000
Si      -0.81287100      -1.83720249      -3.15018651       0.00000000
Si      -2.61902475      -2.69747739       0.13119151       0.00000000
