10
Lattice="16.28999089631971 0.0 0.0 0.0 16.28999089631971 0.0 0.0 0.0 34.56954931742767" Properties=species:S:1:pos:R:3:initial_magmoms:R:1 pbc="T T T"
Si       2.20079529       0.73831167      -0.15110358       0.00000000
Si      -1.05319737       2.09065860      -0.50094762       0.00000000
Si      -0.24751026      -0.91012230       2.21010166       0.00000000
Si      -0.26204094      -1.45806903      -1.90654628       0.00000000
Si       2.44711638       0.74650554      -2.50788393       0.00000000
Si      -2.59338429      -0.60922971       2.42356875       0.00000000
Si       1.97923500      -1.55830140      -2.70645153       0.00000000
Si      -1.01222802       2.11219398      -2.90232270       0.00000000
Si      -1.62758277      -3.26023499      -1.19465515       0.00000000
Si      -1.53823212      -0.15856686      -3.52298474       0.00000000
