10
Lattice="16.28999089631971 0.0 0.0 0.0 16.28999089631971 0.0 0.0 0.0 34.56954931742767" Properties=species:S:1:pos:R:3:initial_magmoms:R:1 pbc="T T T"
Si      -1.34514675       1.27469250       1.41944032       0.00000000
Si       1.35917244       1.29174813      -1.41207496       0.00000000
Si      -1.81240911      -0.90248229      -1.24693298       0.00000000
Si       1.36480878      -1.45942110       1.39448109       0.00000000
Si       2.68089417      -0.30157677      -2.49500127       0.00000000
Si      -2.68056837       2.62500318      -0.02000541       0.00000000
Si      -2.62528011      -2.74048299      -0.02366978       0.00000000
Si       0.01532889       2.61607626       2.78489334       0.00000000
Si       2.72513781       2.72424186       0.03972043       0.00000000
Si      -2.69897607      -0.09878256       2.77607810       0.00000000
