10
Lattice="16.28999089631971 0.0 0.0 0.0 16.28999089631971 0.0 0.0 0.0 34.56954931742767" Properties=species:S:1:pos:R:3:initial_magmoms:R:1 pbc="T T T"
Si       1.35742941       1.35707103       1.35758153       0.00000000
Si      -1.35742941       1.35721764      -1.35758153       0.00000000
Si       1.35711990      -1.35744570      -1.35768524       0.00000000
Si      -1.35788553      -1.35803214       1.35758153       0.00000000
Si       2.71314837       0.00068418      -2.71443710       0.00000000
Si       0.00065160       2.71357400      -2.71450624       0.00000000
Si      -2.71251306      -0.00043983       2.71671869       0.00000000
Si      -2.71454931       2.71510267      -0.00038027       0.00000000
Si      -0.00013032      -2.71508688      -2.71457538       0.00000000
Si      -2.71471221       0.00172674      -2.71516306       0.00000000
