10
Lattice="16.28999089631971 0.0 0.0 0.0 16.28999089631971 0.0 0.0 0.0 34.56954931742767" Properties=species:S:1:pos:R:3:initial_magmoms:R:1 pbc="T T T"
Si      -2.08498872       1.04527391      -0.17350466       0.00000000
Si      -0.34853270      -0.92467320       2.17605064       0.00000000
Si       0.03528903      -1.80407256      -1.58366651       0.00000000
Si       1.95796840       1.36839095      -0.54868819       0.00000000
Si       1.76032184       0.88725603      -2.92918326       0.00000000
Si      -1.89442830       2.57711384      -1.89181964       0.00000000
Si       1.03123030      -3.56922438      -0.43243073       0.00000000
Si       2.26229818      -1.42278882      -2.69117178       0.00000000
Si      -3.79692111      -0.58144290       0.26100024       0.00000000
Si      -2.34054624       2.76194018       1.39038805       0.00000000
