10
Lattice="16.28999089631971 0.0 0.0 0.0 16.28999089631971 0.0 0.0 0.0 34.56954931742767" Properties=species:S:1:pos:R:3:initial_magmoms:R:1 pbc="T T T"
Si      -1.35462753       1.35759231       1.35913716       0.00000000
Si      -1.35705474      -1.35692442      -1.35775438       0.00000000
Si       1.35788553       1.35803214      -1.35758153       0.00000000
Si       1.35977517      -1.36028016       1.36007054       0.00000000
Si       0.00032580      -2.71417464      -2.71519763       0.00000000
Si      -2.71437338       0.00060273      -2.71537048       0.00000000
Si      -2.71401826       2.71583622      -0.00003457       0.00000000
Si       2.71500543       0.00058644      -2.71526677       0.00000000
Si       0.00045612       2.71524978      -2.71516306       0.00000000
Si       2.71531494       2.71510317       0.00000000       0.00000000
