10
Lattice="16.28999089631971 0.0 0.0 0.0 16.28999089631971 0.0 0.0 0.0 34.56954931742767" Properties=species:S:1:pos:R:3:initial_magmoms:R:1 pbc="T T T"
Si      -1.24049883       1.86939153       0.77262986       0.00000000
Si      -1.92182808      -0.69902019      -1.27433801       0.00000000
Si       0.13499360      -1.58871483       1.82755482       0.00000000
Si       2.33786749       0.53683695      -0.41542251       0.00000000
Si      -3.05370615      -1.72185300       0.52459320       0.00000000
Si      -0.98503905       1.52699202       3.07738300       0.00000000
Si      -1.37205687      -3.26139484       1.12434065       0.00000000
Si       3.61405868      -0.76266522       1.20101595       0.00000000
Si       2.24851684      -2.56483118       1.91290708       0.00000000
Si       2.77927762       0.22472055      -2.75574773       0.00000000
