10
Lattice="16.28999089631971 0.0 0.0 0.0 16.28999089631971 0.0 0.0 0.0 34.56954931742767" Properties=species:S:1:pos:R:3:initial_magmoms:R:1 pbc="T T T"
Si       0.26349075      -0.18401836      -2.29109060       0.00000000
Si      -0.81210537      -1.91694923       1.21271983       0.00000000
Si       2.00075409       0.81851548       1.09545294       0.00000000
Si      -1.80916740       1.65666042      -0.09984663       0.00000000
Si       0.56964501       2.05529301       2.58256318       0.00000000
Si      -2.18082375      -0.66778661       2.61120753       0.00000000
Si      -0.73948455       3.41492157       1.15320486       0.00000000
Si       0.94581369       2.11392072      -2.88572175       0.00000000
Si      -3.14364420      -1.49860574      -1.32044625       0.00000000
Si      -3.51214029       0.67766237       1.22076071       0.00000000
