10
Lattice="16.28999089631971 0.0 0.0 0.0 16.28999089631971 0.0 0.0 0.0 34.56954931742767" Properties=species:S:1:pos:R:3:initial_magmoms:R:1 pbc="T T T"
Si       1.33677369       1.34970795       1.37125034       0.00000000
Si      -1.30912956       1.35962856      -1.42935833       0.00000000
Si      -1.37456649      -1.36543269       1.36827735       0.00000000
Si       1.43110908      -1.23677752      -1.48711025       0.00000000
Si      -0.56964501      -2.05529301      -2.58256318       0.00000000
Si      -2.37881241      -0.39863259      -2.68240981       0.00000000
Si       2.71010214       2.71202436      -0.00549656       0.00000000
Si       2.69801496      -0.00659745       2.72897015       0.00000000
Si       2.70190827      -2.72519387      -0.02854755       0.00000000
Si      -2.73642678       2.69874801      -0.01638943       0.00000000
