10
Lattice="16.28999089631971 0.0 0.0 0.0 16.28999089631971 0.0 0.0 0.0 34.56954931742767" Properties=species:S:1:pos:R:3:initial_magmoms:R:1 pbc="T T T"
Si       0.79410492      -1.47409839      -1.70901576       0.00000000
Si       0.82339434      -1.81933562       1.34150668       0.00000000
Si      -2.43931347       0.31244220       0.51605452       0.00000000
Si       1.49219658       1.99642095      -0.43049484       0.00000000
Si      -2.58600492       1.50988752      -1.57879220       0.00000000
Si       2.88531738      -2.13457481      -0.00836584       0.00000000
Si      -0.63873090       2.10769794      -2.94370248       0.00000000
Si       0.78656265      -0.97155189       3.63409133       0.00000000
Si       2.32240014      -0.40236300      -3.04239860       0.00000000
Si      -0.49559067      -3.77917316       0.90610296       0.00000000
