10
Lattice="16.28999089631971 0.0 0.0 0.0 16.28999089631971 0.0 0.0 0.0 34.56954931742767" Properties=species:S:1:pos:R:3:initial_magmoms:R:1 pbc="T T T"
Si      -0.56268918       0.46044695       2.20339517       0.00000000
Si       2.14034310      -1.11073725       0.01949724       0.00000000
Si      -0.23128542       2.16009016      -1.11521428       0.00000000
Si      -1.77095106      -1.70113572      -0.05271859       0.00000000
Si       1.16512596       2.01641236       2.52243771       0.00000000
Si      -1.46158767      -2.37319596      -2.26689946       0.00000000
Si      -0.19445373       1.31230644      -3.40779894       0.00000000
Si      -2.57422725       1.68336331       2.02449765       0.00000000
Si       1.49740938      -3.27864303       0.81587639       0.00000000
Si      -1.77675030       3.27049801       0.45690599       0.00000000
