10
Lattice="16.28999089631971 0.0 0.0 0.0 16.28999089631971 0.0 0.0 0.0 34.56954931742767" Properties=species:S:1:pos:R:3:initial_magmoms:R:1 pbc="T T T"
Si      -0.59314563       2.11615245      -0.82870170       0.00000000
Si       0.52688702      -0.99955440      -2.07852988       0.00000000
Si       1.67460874       0.67533453       1.62504628       0.00000000
Si      -1.61065161      -1.34416935       1.23347678       0.00000000
Si       1.11973062       3.57967863      -0.27199337       0.00000000
Si      -2.64379599       2.67737553       0.11833163       0.00000000
Si      -1.13157900      -3.58874306       0.74767063       0.00000000
Si       2.64041026      -1.97567075      -1.99317762       0.00000000
Si       1.60845505       2.99165850       1.94965453       0.00000000
Si       0.39189342       0.58916043      -3.90608470       0.00000000
