10
Lattice="16.28999089631971 0.0 0.0 0.0 16.28999089631971 0.0 0.0 0.0 34.56954931742767" Properties=species:S:1:pos:R:3:initial_magmoms:R:1 pbc="T T T"
Si      -1.31898501      -1.95983754      -0.43540372       0.00000000
Si      -0.82339434       1.81933562      -1.34150668       0.00000000
Si      -0.03683169       0.84778373       2.29258465       0.00000000
Si       2.06192304      -0.31523919      -1.34987252       0.00000000
Si      -0.02928942       0.34523723      -3.05052245       0.00000000
Si       0.19445373      -1.31230644       3.40779894       0.00000000
Si       1.95963813       2.24988032       2.26679575       0.00000000
Si       3.89448288      -0.49958172       0.38724831       0.00000000
Si      -3.26270781       2.13177782      -0.82545216       0.00000000
Si      -1.26713394      -3.68550240       1.14089947       0.00000000
