10
Lattice="16.28999089631971 0.0 0.0 0.0 16.28999089631971 0.0 0.0 0.0 34.56954931742767" Properties=species:S:1:pos:R:3:initial_magmoms:R:1 pbc="T T T"
Si       0.56268918      -0.46044695      -2.20339517       0.00000000
Si       1.72781514       1.55596541       0.31904255       0.00000000
Si      -2.01153807       1.22291636      -0.17889752       0.00000000
Si       0.37339938      -1.72013996       1.62072509       0.00000000
Si      -1.20826188      -2.16158267      -2.25611376       0.00000000
Si      -1.21406112       2.81005106      -1.74648918       0.00000000
Si       3.48982299       0.12059650       0.86593312       0.00000000
Si      -0.75341250      -0.78129839       3.47164893       0.00000000
Si       2.66102037      -1.79913017       1.89755819       0.00000000
Si       1.23009048       2.67267749       2.30081221       0.00000000
