10
Lattice="16.28999089631971 0.0 0.0 0.0 16.28999089631971 0.0 0.0 0.0 34.56954931742767" Properties=species:S:1:pos:R:3:initial_magmoms:R:1 pbc="T T T"
Si      -0.49772466       1.11671208       1.98176966       0.00000000
Si       1.76200785      -1.43536891       0.54689058       0.00000000
Si      -1.72781514      -1.55596541      -0.31904255       0.00000000
Si       0.65814858       1.84173111      -1.38205678       0.00000000
Si      -1.16512596      -2.01641236      -2.52243771       0.00000000
Si      -1.43813007       2.92076442      -1.17197752       0.00000000
Si       1.75213611       1.50387651       2.67371415       0.00000000
Si       3.22471953      -0.09179415       1.69930172       0.00000000
Si      -1.44927243       3.13937622       1.18850177       0.00000000
Si      -1.35441576      -3.27610538       1.30168254       0.00000000
