10
Lattice="16.28999089631971 0.0 0.0 0.0 16.28999089631971 0.0 0.0 0.0 34.56954931742767" Properties=species:S:1:pos:R:3:initial_magmoms:R:1 pbc="T T T"
Si       0.49772466      -1.11671208      -1.98176966       0.00000000
Si      -0.95154777       2.02266414      -0.79326789       0.00000000
Si       2.24986077       0.38716443       0.69194449       0.00000000
Si      -1.89490167      -1.06204284       1.07694577       0.00000000
Si      -1.95116733       0.34085196       3.03669462       0.00000000
Si       1.15587324       0.72501903      -3.36382645       0.00000000
Si      -3.65850594      -0.34955082      -0.40595044       0.00000000
Si       2.25973251      -2.55208099      -1.43487909       0.00000000
Si      -1.23009048      -2.67267749      -2.30081221       0.00000000
Si      -3.19062456       1.95525612      -0.20738284       0.00000000
