10
Lattice="16.28999089631971 0.0 0.0 0.0 16.28999089631971 0.0 0.0 0.0 34.56954931742767" Properties=species:S:1:pos:R:3:initial_magmoms:R:1 pbc="T T T"
Si      -1.35469269       1.35575154      -1.36387319       0.00000000
Si       1.36081773      -1.36166481      -1.36359663       0.00000000
Si       1.36045935       1.36484136       1.37092538       0.00000000
Si      -1.37037996      -1.36448298       1.36950803       0.00000000
Si       0.01130526      -2.66075973       2.74924865       0.00000000
Si      -2.71248048       2.71459818      -0.00477060       0.00000000
Si      -2.71101438      -2.71697652      -0.00321497       0.00000000
Si       2.71656927       2.71388142      -0.00477060       0.00000000
Si      -2.71212210      -0.00267156      -2.71996823       0.00000000
Si       2.71624347      -2.71661814      -0.00356067       0.00000000
