10
Lattice="16.28999089631971 0.0 0.0 0.0 16.28999089631971 0.0 0.0 0.0 34.56954931742767" Properties=species:S:1:pos:R:3:initial_magmoms:R:1 pbc="T T T"
Si      -1.94470020      -0.73308258       1.41571514       0.00000000
Si       0.57125772       1.93808646       1.56534606       0.00000000
Si       2.09411208      -1.80085950       0.30082439       0.00000000
Si      -1.08823716      -1.89954432      -1.83675032       0.00000000
Si       0.24312825       1.50193800      -2.63157384       0.00000000
Si      -1.54624680       0.09270639      -2.99265299       0.00000000
Si      -0.62942931      -1.97201853       3.04087550       0.00000000
Si       0.79786791      -3.31113798       1.62790661       0.00000000
Si       2.07117576       0.76093848       3.06417539       0.00000000
Si       3.51332946      -0.47281725       1.68349447       0.00000000
