10
Lattice="16.28999089631971 0.0 0.0 0.0 16.28999089631971 0.0 0.0 0.0 34.56954931742767" Properties=species:S:1:pos:R:3:initial_magmoms:R:1 pbc="T T T"
Si       1.70020359       1.25162586      -1.15121814       0.00000000
Si       1.49991804      -1.17714798       1.49882933       0.00000000
Si      -1.20633966       1.52523270       1.47683617       0.00000000
Si      -0.57125772      -1.93808646      -1.56534606       0.00000000
Si       0.10974573       2.68307703      -2.41264619       0.00000000
Si      -2.51595792      -2.67116904      -0.14963092       0.00000000
Si       2.94207174      -2.41090371       0.11814841       0.00000000
Si       0.16192260      -2.54181015       2.86303093       0.00000000
Si      -2.55412539       0.17089839       2.86109504       0.00000000
Si       3.58696026      -0.56042487      -1.50747660       0.00000000
