10
Lattice="16.28999089631971 0.0 0.0 0.0 16.28999089631971 0.0 0.0 0.0 34.56954931742767" Properties=species:S:1:pos:R:3:initial_magmoms:R:1 pbc="T T T"
Si       1.19764080       1.57768650       1.34306542       0.00000000
Si      -1.70020359      -1.25162586       1.15121814       0.00000000
Si      -1.59045786       1.43145117      -1.26142804       0.00000000
Si       1.88675667      -1.81205073      -0.35625846       0.00000000
Si       1.73314197       1.23367428      -2.10962698       0.00000000
Si      -0.20028555      -2.42877384       2.65004747       0.00000000
Si       2.54081646       0.26766099       2.67099318       0.00000000
Si      -0.12983130       2.50605360      -2.72140464       0.00000000
Si       3.02019858       2.43779850      -0.07562270       0.00000000
Si      -2.90654325       0.27360684       2.62805432       0.00000000
