10
Lattice="16.28999089631971 0.0 0.0 0.0 16.28999089631971 0.0 0.0 0.0 34.56954931742767" Properties=species:S:1:pos:R:3:initial_magmoms:R:1 pbc="T T T"
Si       1.35707103      -1.35687555       1.35758153       0.00000000
Si      -1.35728280      -1.35689184      -1.35782352       0.00000000
Si       1.35899325       1.35713619      -1.35678643       0.00000000
Si      -1.35751086       1.35757602       1.35806550       0.00000000
Si       2.71233387       0.00234576      -2.71225922       0.00000000
Si       0.00039096      -2.71277370      -2.71464452       0.00000000
Si      -0.00083079      -2.71366965       2.71402226       0.00000000
Si       2.71404432      -2.71459818       0.00024199       0.00000000
Si       2.71458189       2.71474479       0.00006914       0.00000000
Si      -2.71502172      -0.00125433       2.71447167       0.00000000
