10
Lattice="16.28999089631971 0.0 0.0 0.0 16.28999089631971 0.0 0.0 0.0 34.56954931742767" Properties=species:S:1:pos:R:3:initial_magmoms:R:1 pbc="T T T"
Si       1.35765747       1.35843939       1.35661358       0.00000000
Si      -1.35751086      -1.35883035       1.35640616       0.00000000
Si       1.35751086      -1.35757602      -1.35806550       0.00000000
Si      -1.35843939       1.35775521      -1.35789266       0.00000000
Si       0.00221544       2.71114470       2.71474823       0.00000000
Si      -0.00110772      -2.71239903       2.71505935       0.00000000
Si       2.71458189      -2.71445157      -0.00048397       0.00000000
Si       2.71448415       2.71503801      -0.00041483       0.00000000
Si       0.00022806      -2.71446786      -2.71588902       0.00000000
Si      -2.71568961       0.00011403      -2.71478279       0.00000000
