10
Lattice="16.28999089631971 0.0 0.0 0.0 16.28999089631971 0.0 0.0 0.0 34.56954931742767" Properties=species:S:1:pos:R:3:initial_magmoms:R:1 pbc="T T T"
Si       1.19363346      -0.04678488       2.05370893       0.00000000
Si      -2.32613055      -0.22641471       0.58681843       0.00000000
Si       0.60536898       2.24730324      -0.73930479       0.00000000
Si       1.09110420      -1.55667240      -1.60046732       0.00000000
Si       3.29273028      -0.64860264       1.19527741       0.00000000
Si       0.77436144       1.81723095      -3.00126081       0.00000000
Si       2.75012667      -2.55663405      -0.17678877       0.00000000
Si       0.83663811       1.98327492       3.23695613       0.00000000
Si       1.96589349      -0.15688899      -3.35805333       0.00000000
Si      -3.61756917       1.50218235      -0.34974033       0.00000000
