10
Lattice="16.28999089631971 0.0 0.0 0.0 16.28999089631971 0.0 0.0 0.0 34.56954931742767" Properties=species:S:1:pos:R:3:initial_magmoms:R:1 pbc="T T T"
Si       2.32064082       0.06669126       0.13703377       0.00000000
Si      -0.48861855      -2.06837388      -1.04403554       0.00000000
Si      -0.38345031       1.77632676      -1.55213906       0.00000000
Si      -1.23400008      -0.21898647       2.08126088       0.00000000
Si      -2.74331745      -1.97706843      -0.54371018       0.00000000
Si      -2.70920619       2.08863864      -1.31136202       0.00000000
Si       3.06304128       2.23599798      -0.33670760       0.00000000
Si       3.20877162      -1.30810329      -1.58522214       0.00000000
Si       1.15720902       3.53033622      -0.95104340       0.00000000
Si      -3.02337513      -1.62821808       1.72018174       0.00000000
