10
Lattice="16.28999089631971 0.0 0.0 0.0 16.28999089631971 0.0 0.0 0.0 34.56954931742767" Properties=species:S:1:pos:R:3:initial_magmoms:R:1 pbc="T T T"
Si      -1.78937505      -1.40923161      -0.36107914       0.00000000
Si      -1.21485933       1.93551264       0.49555477       0.00000000
Si       1.23400008       0.21898647      -2.08126088       0.00000000
Si      -0.24312825      -1.50193800       2.63157384       0.00000000
Si      -1.50931737      -1.75808196      -2.62497106       0.00000000
Si       0.43787520       3.11922549       1.78427372       0.00000000
Si       0.74538153      -1.84938741      -3.12529642       0.00000000
Si      -1.33136541      -3.40148232       0.79482352       0.00000000
Si       2.02833306       1.68777432       3.04570176       0.00000000
Si      -1.51420437       3.49120764      -1.38133082       0.00000000
