10
Lattice="16.28999089631971 0.0 0.0 0.0 16.28999089631971 0.0 0.0 0.0 34.56954931742767" Properties=species:S:1:pos:R:3:initial_magmoms:R:1 pbc="T T T"
Si       1.46062656       1.07460243      -1.45997659       0.00000000
Si      -1.32172173       1.59332490       1.08292631       0.00000000
Si      -1.65273453      -1.18371285      -1.28871895       0.00000000
Si       1.59045786      -1.43145117       1.26142804       0.00000000
Si       3.32359983      -0.19777689      -0.84819894       0.00000000
Si      -0.10974573      -2.68307703       2.41264619       0.00000000
Si      -0.43787520      -3.11922549      -1.78427372       0.00000000
Si      -2.68089417       0.30157677       2.49500127       0.00000000
Si      -1.95207957       0.37198215      -3.16560454       0.00000000
Si       0.16244388       1.40382333      -3.47766404       0.00000000
