10
Lattice="16.28999089631971 0.0 0.0 0.0 16.28999089631971 0.0 0.0 0.0 34.56954931742767" Properties=species:S:1:pos:R:3:initial_magmoms:R:1 pbc="T T T"
Si       1.35690813       1.35791226       1.35761610       0.00000000
Si      -1.35798327      -1.35765747       1.35747782       0.00000000
Si      -1.35755973       1.35686156      -1.35989769       0.00000000
Si       1.35788553      -1.35881406      -1.35975941       0.00000000
Si       0.00110772      -2.69796609      -2.72894249       0.00000000
Si      -0.00026064       2.71449134       2.71519763       0.00000000
Si      -2.71498914      -0.00022611       2.71485193       0.00000000
Si       2.71459818      -0.00023531       2.71537048       0.00000000
Si       2.71544526      -2.71484253       0.00000000       0.00000000
Si      -0.00022806      -2.71526607       2.71523220       0.00000000
