10
Lattice="16.28999089631971 0.0 0.0 0.0 16.28999089631971 0.0 0.0 0.0 34.56954931742767" Properties=species:S:1:pos:R:3:initial_magmoms:R:1 pbc="T T T"
Si       1.25657802      -1.75817970      -0.92902259       0.00000000
Si       1.25705043       0.07307694       2.01046240       0.00000000
Si       0.64293372       2.16790578      -0.79637915       0.00000000
Si      -2.35965537      -0.32319360       0.28582119       0.00000000
Si      -2.23541154      -0.28834929       2.66334328       0.00000000
Si       3.30592518       0.68968602       1.12821244       0.00000000
Si       3.44986362      -0.86934843      -0.65740949       0.00000000
Si      -1.49740938       3.27864303      -0.81587639       0.00000000
Si      -3.26836044       1.57750731      -0.86859498       0.00000000
Si       0.60092181       1.93995981       3.28507697       0.00000000
