10
Lattice="16.28999089631971 0.0 0.0 0.0 16.28999089631971 0.0 0.0 0.0 34.56954931742767" Properties=species:S:1:pos:R:3:initial_magmoms:R:1 pbc="T T T"
Si      -1.35742941       1.35707592       1.36287067       0.00000000
Si       1.35892648      -1.35814919       1.36211014       0.00000000
Si       1.36058744       1.35196086      -1.38275163       0.00000000
Si      -1.35353610      -1.36152050      -1.39464702       0.00000000
Si       2.71433495       2.71214328       0.00200503       0.00000000
Si      -2.71456560      -2.71743494       0.00231616       0.00000000
Si      -2.71867068       2.71338132       0.00515087       0.00000000
Si      -0.00001629       2.71372341       2.71993366       0.00000000
Si       2.71483831      -2.71930829       0.00449404       0.00000000
Si       2.71473080      -0.00125107       2.71972624       0.00000000
