10
Lattice="16.28999089631971 0.0 0.0 0.0 16.28999089631971 0.0 0.0 0.0 34.56954931742767" Properties=species:S:1:pos:R:3:initial_magmoms:R:1 pbc="T T T"
Si      -0.08895969       0.46524240       2.25186170       0.00000000
Si       0.94623723       1.83080052      -1.16582413       0.00000000
Si       1.47258342      -1.59567066      -0.97441243       0.00000000
Si      -2.24986077      -0.38716443      -0.69194449       0.00000000
Si      -1.75213611      -1.50387651      -2.67371415       0.00000000
Si       0.00987174      -2.93924543      -2.12682357       0.00000000
Si       1.49060016       2.21439744       2.52541070       0.00000000
Si       1.04236452       1.18260513      -3.39134382       0.00000000
Si      -2.23958178       1.31127984       2.71384942       0.00000000
Si       0.14946075      -1.55966976       3.42318240       0.00000000
