10
Lattice="16.28999089631971 0.0 0.0 0.0 16.28999089631971 0.0 0.0 0.0 34.56954931742767" Properties=species:S:1:pos:R:3:initial_magmoms:R:1 pbc="T T T"
Si       0.94186892      -1.92022352       1.26811549       0.00000000
Si      -1.75443300       0.94278375       1.51953996       0.00000000
Si       1.81870912       1.76251284       0.22300829       0.00000000
Si      -0.52321851      -0.05051529      -2.51839308       0.00000000
Si       2.11317205      -0.58599691       3.04451913       0.00000000
Si      -0.04414590      -2.29508900      -3.00419922       0.00000000
Si      -1.09550250      -3.54655196      -0.97417044       0.00000000
Si      -0.54257103       2.34341424       3.00944831       0.00000000
Si       3.49445654       0.75523698       1.73895301       0.00000000
Si      -2.89750230       0.19696239      -2.73576652       0.00000000
