10
Lattice="16.28999089631971 0.0 0.0 0.0 16.28999089631971 0.0 0.0 0.0 34.56954931742767" Properties=species:S:1:pos:R:3:initial_magmoms:R:1 pbc="T T T"
Si      -1.44215370       1.23375573       1.38068092       0.00000000
Si      -1.41921738      -1.32804225      -1.38267009       0.00000000
Si       1.30377015      -1.48592493       1.36827390       0.00000000
Si       0.64488852       1.85047884      -1.62562502       0.00000000
Si       2.50958853       2.61363276      -0.13824716       0.00000000
Si      -0.06820623       2.58421302       2.74726782       0.00000000
Si       0.18445167      -2.50895322      -2.81578613       0.00000000
Si      -2.94207174       2.41090371      -0.11814841       0.00000000
Si       2.64940560      -0.13385493       2.74325775       0.00000000
Si       2.70172908      -2.77052175      -0.12662487       0.00000000
