10
Lattice="16.28999089631971 0.0 0.0 0.0 16.28999089631971 0.0 0.0 0.0 34.56954931742767" Properties=species:S:1:pos:R:3:initial_magmoms:R:1 pbc="T T T"
Si       1.56931344       1.13922486       1.38095056       0.00000000
Si      -1.27006777       1.43236341      -1.47968125       0.00000000
Si       1.42586370      -1.28472714      -1.48853106       0.00000000
Si      -1.76717504      -0.80747901       1.53658276       0.00000000
Si      -2.53126808      -2.51643033      -0.02793221       0.00000000
Si       3.33430236      -0.66933981       1.36269783       0.00000000
Si       2.74090653      -2.58250257      -0.04659978       0.00000000
Si      -2.64118634       2.78299989      -0.07608762       0.00000000
Si      -2.62676071       0.07724718      -2.85447842       0.00000000
Si       0.09194076      -2.63873565      -2.85489326       0.00000000
