10
Lattice="16.28999089631971 0.0 0.0 0.0 16.28999089631971 0.0 0.0 0.0 34.56954931742767" Properties=species:S:1:pos:R:3:initial_magmoms:R:1 pbc="T T T"
Si      -0.90952513      -1.88134839       1.09457625       0.00000000
Si      -0.71966518       1.95639642       1.13097801       0.00000000
Si       2.41426108      -0.39270303       0.00463232       0.00000000
Si      -1.35851011      -0.80036028      -2.21469941       0.00000000
Si       1.11956772       1.93062564      -2.44690321       0.00000000
Si      -0.23408078       3.19541382      -1.00590531       0.00000000
Si       0.35736839      -2.74465323      -2.12246781       0.00000000
Si       0.67153896      -3.42371817       0.32623302       0.00000000
Si       2.45233081      -2.23335900       1.52375745       0.00000000
Si      -3.11278021       1.60093233       1.29985035       0.00000000
