10
Lattice="16.28999089631971 0.0 0.0 0.0 16.28999089631971 0.0 0.0 0.0 34.56954931742767" Properties=species:S:1:pos:R:3:initial_magmoms:R:1 pbc="T T T"
Si       0.57511260       2.10777939       0.90129779       0.00000000
Si       0.97646562      -0.06336810      -2.21348948       0.00000000
Si       0.31001499      -2.10215934       1.19099078       0.00000000
Si      -2.29568454      -0.47573316       0.75482653       0.00000000
Si      -1.92060729      -2.83651254       0.57651670       0.00000000
Si      -1.32105384       3.25487232       0.05918310       0.00000000
Si      -3.34731807       0.27354168      -1.30023062       0.00000000
Si       1.81970607      -2.22749460      -2.20087159       0.00000000
Si       2.30843051      -2.81551473       0.02077631       0.00000000
Si       2.49410393       2.69058672      -0.69975721       0.00000000
