10
Lattice="16.28999089631971 0.0 0.0 0.0 16.28999089631971 0.0 0.0 0.0 34.56954931742767" Properties=species:S:1:pos:R:3:initial_magmoms:R:1 pbc="T T T"
Si       1.89616644      -1.14709293       0.84211469       0.00000000
Si      -1.28386377      -0.81202392      -1.83315509       0.00000000
Si      -1.81943010      -0.34555977       1.52088817       0.00000000
Si      -0.16190631       2.38773933       0.78963809       0.00000000
Si       1.32105384      -3.25487232      -0.05918310       0.00000000
Si       1.30658832      -0.81257778       3.34709477       0.00000000
Si      -0.53237349       0.85856445       3.55489245       0.00000000
Si      -2.02626423      -2.98133064      -1.35941372       0.00000000
Si       2.95038031       0.99559593      -2.31218560       0.00000000
Si      -3.68240337       0.92681955       0.90911052       0.00000000
