10
Lattice="16.28999089631971 0.0 0.0 0.0 16.28999089631971 0.0 0.0 0.0 34.56954931742767" Properties=species:S:1:pos:R:3:initial_magmoms:R:1 pbc="T T T"
Si      -1.35612621       1.35793440      -1.35861862       0.00000000
Si       1.35897696      -1.35555606      -1.35948286       0.00000000
Si      -1.34338743      -1.35337320       1.37974062       0.00000000
Si       1.35920502       1.35646830       1.38655083       0.00000000
Si      -2.71539639      -2.71464705       0.00190133       0.00000000
Si      -2.71381626       0.00065160      -2.71654584       0.00000000
Si      -2.71446786       2.71610748       0.00096795       0.00000000
Si       2.71460712       2.71612230       0.00276557       0.00000000
Si       0.00107514      -2.71414206      -2.71675326       0.00000000
Si       2.71831230      -2.71321353       0.00013828       0.00000000
