10
Lattice="16.28999089631971 0.0 0.0 0.0 16.28999089631971 0.0 0.0 0.0 34.56954931742767" Properties=species:S:1:pos:R:3:initial_magmoms:R:1 pbc="T T T"
Si       2.04887475       0.61660908      -0.88224996       0.00000000
Si       0.23079672      -2.09528496       1.03677593       0.00000000
Si      -0.65612862       1.86688287       1.27461457       0.00000000
Si      -1.25705043      -0.07307694      -2.01046240       0.00000000
Si      -2.13454386      -2.23619346       1.41617695       0.00000000
Si       1.31088888       2.80963404      -1.53291838       0.00000000
Si      -0.00047241      -1.83125664      -2.93948499       0.00000000
Si      -0.61411671       2.09482884      -2.80684156       0.00000000
Si      -3.49246197      -0.36142623       0.65288087       0.00000000
Si       2.19281319      -0.94242537      -2.66787189       0.00000000
