10
Lattice="16.28999089631971 0.0 0.0 0.0 16.28999089631971 0.0 0.0 0.0 34.56954931742767" Properties=species:S:1:pos:R:3:initial_magmoms:R:1 pbc="T T T"
Si       0.98512146       1.91498724       1.14373214       0.00000000
Si      -1.82255778      -0.86011200       1.41868812       0.00000000
Si       1.83896181      -1.67114223      -0.20779768       0.00000000
Si      -1.28705661      -1.20412422      -2.03400428       0.00000000
Si       0.37046718       1.52917488      -2.76525436       0.00000000
Si      -0.47938212      -2.17013751       2.74661588       0.00000000
Si       2.24684712       0.56351997       2.69632752       0.00000000
Si       0.53237349      -0.85856445      -3.55489245       0.00000000
Si       0.73125810      -3.48669531       1.20674210       0.00000000
Si      -3.02019858      -2.43779850       0.07562270       0.00000000
