10
Lattice="16.28999089631971 0.0 0.0 0.0 16.28999089631971 0.0 0.0 0.0 34.56954931742767" Properties=species:S:1:pos:R:3:initial_magmoms:R:1 pbc="T T T"
Si       1.35364850      -1.26478818      -1.44099790       0.00000000
Si       1.32154580       1.40533830       1.48777053       0.00000000
Si      -1.62796951       1.35604476      -1.23434102       0.00000000
Si      -0.48558439      -1.23901740       2.13688332       0.00000000
Si      -0.70626502       2.66737347       1.51881400       0.00000000
Si       0.23408078      -3.19541382       1.00590531       0.00000000
Si      -2.89793791       1.82167812       0.90392508       0.00000000
Si      -0.28256212      -2.34958815      -2.72923287       0.00000000
Si       2.71770468       2.49194646      -0.15815578       0.00000000
Si       2.40361719       0.32057091      -2.82661535       0.00000000
