10
Lattice="16.28999089631971 0.0 0.0 0.0 16.28999089631971 0.0 0.0 0.0 34.56954931742767" Properties=species:S:1:pos:R:3:initial_magmoms:R:1 pbc="T T T"
Si      -0.86477746       1.55988153      -1.55324529       0.00000000
Si       0.55949634      -1.59762546      -1.68004647       0.00000000
Si       1.80846693       1.01643084       1.33082468       0.00000000
Si      -1.91899132      -0.58280733       1.60105500       0.00000000
Si      -1.51763830      -2.75395482      -1.51373227       0.00000000
Si      -0.68915497       3.56164560      -0.26100024       0.00000000
Si       0.90772767       1.83969486      -3.04495674       0.00000000
Si      -2.49410393      -2.69058672       0.69975721       0.00000000
Si       1.28757789      -0.44044902      -3.64107439       0.00000000
Si      -3.81515777       0.56428560       0.75894031       0.00000000
