10
Lattice="16.28999089631971 0.0 0.0 0.0 16.28999089631971 0.0 0.0 0.0 34.56954931742767" Properties=species:S:1:pos:R:3:initial_magmoms:R:1 pbc="T T T"
Si      -1.11455203      -1.61671734       1.33244945       0.00000000
Si       1.46562759       1.36242948       1.28913378       0.00000000
Si       1.41133302      -1.26355014      -1.49292139       0.00000000
Si      -1.29204787       1.44025821      -1.48244681       0.00000000
Si       2.87057493      -2.56616370      -0.10018261       0.00000000
Si      -2.72892428      -2.76346818      -0.04048096       0.00000000
Si       0.06019155      -2.62506834      -2.86744201       0.00000000
Si      -2.56303358       2.92756454      -0.04189832       0.00000000
Si      -2.65881947       0.09067929      -2.86505671       0.00000000
Si       2.70914103       2.86149230      -0.06056588       0.00000000
