10
Lattice="16.28999089631971 0.0 0.0 0.0 16.28999089631971 0.0 0.0 0.0 34.56954931742767" Properties=species:S:1:pos:R:3:initial_magmoms:R:1 pbc="T T T"
Si      -0.94186892       1.92022352      -1.26811549       0.00000000
Si       1.17130313       1.33422660       1.77640365       0.00000000
Si      -1.42271714      -1.24051608       1.66670058       0.00000000
Si       1.82053130      -1.09714779      -1.39840819       0.00000000
Si      -2.03737142      -1.62632844      -2.24228593       0.00000000
Si       3.32940884       0.85440140      -0.95671281       0.00000000
Si       2.55258761       2.67546050       0.47083752       0.00000000
Si       0.87684020       3.68273636      -1.04510720       0.00000000
Si      -2.69630192       2.86300727       0.25142447       0.00000000
Si      -2.40783860      -3.15550332       0.52296843       0.00000000
