10
Lattice="10.86 0.0 0.0 0.0 10.86 0.0 0.0 0.0 10.86" Properties=species:S:1:pos:R:3:initial_magmoms:R:1 pbc="T T T"
Si      -0.90427962      -1.33159890       1.54235892       0.00000000
Si       1.41860922      -1.22318352      -1.32010902       0.00000000
Si      -1.29639078       1.49181648      -1.32010902       0.00000000
Si       1.41860922       1.49181648       1.39489098       0.00000000
Si      -2.60047044      -2.35325340       0.40509972       0.00000000
Si       2.58967560      -2.65162104       0.10284420       0.00000000
Si       0.06110922      -2.58068352      -2.67760902       0.00000000
Si      -2.65389078       0.13431648      -2.67760902       0.00000000
Si      -2.70226122       0.15585186       2.72140740       0.00000000
Si       2.77610922       0.13431648      -2.67760902       0.00000000
