10
Lattice="10.86 0.0 0.0 0.0 10.86 0.0 0.0 0.0 10.86" Properties=species:S:1:pos:R:3:initial_magmoms:R:1 pbc="T T T"
Si       1.38663738       1.21421316       1.40351382       0.00000000
Si       1.38663738      -1.50078684      -1.31148618       0.00000000
Si      -1.32836262      -1.50078684       1.40351382       0.00000000
Si      -1.80059886      -0.41814258      -1.94606856       0.00000000
Si      -2.63936010       2.59078332       0.28784430       0.00000000
Si       2.56229754      -0.29860656      -2.72686998       0.00000000
Si       0.02913738       2.57171316       2.76101382       0.00000000
Si      -2.68586262      -0.14328684       2.76101382       0.00000000
Si       2.74413738      -0.14328684       2.76101382       0.00000000
Si       0.02913738      -2.85828684      -2.66898618       0.00000000
