10
Lattice="10.86 0.0 0.0 0.0 10.86 0.0 0.0 0.0 10.86" Properties=species:S:1:pos:R:3:initial_magmoms:R:1 pbc="T T T"
Si      -1.26205146       1.23085068      -1.45124352       0.00000000
Si       1.45294854       1.23085068       1.26375648       0.00000000
Si      -1.26205146      -1.48414932       1.26375648       0.00000000
Si      -2.61955146       2.58835068      -0.09374352       0.00000000
Si       0.09544854       2.58835068       2.62125648       0.00000000
Si      -2.61955146      -0.12664932       2.62125648       0.00000000
Si      -2.71086234       0.04622016      -2.57127876       0.00000000
Si       0.09544854       2.58835068      -2.80874352       0.00000000
Si       2.81044854       2.58835068      -0.09374352       0.00000000
Si      -2.57304894      -2.82257916       0.14808696       0.00000000
