10
Lattice="10.86 0.0 0.0 0.0 10.86 0.0 0.0 0.0 10.86" Properties=species:S:1:pos:R:3:initial_magmoms:R:1 pbc="T T T"
Si       1.33496550      -1.34470692       1.33342338       0.00000000
Si      -1.38003450       1.37029308       1.33342338       0.00000000
Si       1.33496550       1.37029308      -1.38157662       0.00000000
Si       2.69246550       0.01279308       2.69092338       0.00000000
Si      -0.02253450      -2.70220692       2.69092338       0.00000000
Si       2.69246550      -2.70220692      -0.02407662       0.00000000
Si      -0.02253450       2.72779308       2.69092338       0.00000000
Si       2.69246550       2.72779308      -0.02407662       0.00000000
Si      -2.73753450       0.01279308       2.69092338       0.00000000
Si       2.69246550       0.01279308      -2.73907662       0.00000000
