10
Lattice="10.86 0.0 0.0 0.0 10.86 0.0 0.0 0.0 10.86" Properties=species:S:1:pos:R:3:initial_magmoms:R:1 pbc="T T T"
Si       1.36048650       1.34448972       1.17498684       0.00000000
Si      -1.35451350      -1.37051028       1.17498684       0.00000000
Si       1.36048650      -1.37051028      -1.54001316       0.00000000
Si      -2.54360748       1.05300732      -0.51581742       0.00000000
Si       2.71798650      -0.01301028       2.53248684       0.00000000
Si      -0.00346434       2.74399620       2.51018040       0.00000000
Si       0.00298650      -2.72801028       2.53248684       0.00000000
Si      -2.39041632       0.15991350      -2.91314070       0.00000000
Si      -3.01054404      -0.01410714       2.37419148       0.00000000
Si       2.71798650       2.70198972      -0.18251316       0.00000000
