10
Lattice="10.86 0.0 0.0 0.0 10.86 0.0 0.0 0.0 10.86" Properties=species:S:1:pos:R:3:initial_magmoms:R:1 pbc="T T T"
Si       1.09985736       1.13806284      -1.83102858       0.00000000
Si       1.35855342      -1.36678530       1.54844052       0.00000000
Si      -1.25240778       1.41848976       1.68346290       0.00000000
Si      -0.10217088      -2.75671326      -2.42166054       0.00000000
Si      -2.81717088      -0.04171326      -2.42166054       0.00000000
Si       2.61282912      -2.75671326       0.29333946       0.00000000
Si      -0.16988298       2.79553776      -2.59637622       0.00000000
Si      -2.81717088       2.67328674       0.29333946       0.00000000
Si      -2.81717088      -2.75671326       0.29333946       0.00000000
Si       2.61282912      -0.04171326       3.00833946       0.00000000
