10
Lattice="10.86 0.0 0.0 0.0 10.86 0.0 0.0 0.0 10.86" Properties=species:S:1:pos:R:3:initial_magmoms:R:1 pbc="T T T"
Si       1.01716932       1.33273920      -1.46661042       0.00000000
Si      -1.25427570       1.38992796       1.25510106       0.00000000
Si       1.35750000      -1.35750000       1.35750000       0.00000000
Si      -1.35750000      -1.35750000      -1.35750000       0.00000000
Si      -2.61282912       2.75671326      -0.29333946       0.00000000
Si       2.71500000       0.00000000       2.71500000       0.00000000
Si      -2.71500000      -2.71500000       0.00000000       0.00000000
Si       0.00000000      -2.71500000      -2.71500000       0.00000000
Si      -2.71500000       0.00000000       2.71500000       0.00000000
Si       2.71500000       2.71500000       0.00000000       0.00000000
