10
Lattice="10.86 0.0 0.0 0.0 10.86 0.0 0.0 0.0 10.86" Properties=species:S:1:pos:R:3:initial_magmoms:R:1 pbc="T T T"
Si       1.26974034      -1.65747492       0.76534764       0.00000000
Si       1.35516510       1.43800518      -1.12638834       0.00000000
Si      -1.09359114      -1.65357618      -1.18684596       0.00000000
Si      -1.50670554       1.19827068       1.37414838       0.00000000
Si       0.06771210       2.59274898      -2.54028432       0.00000000
Si      -2.64728790      -0.12225102      -2.54028432       0.00000000
Si      -2.64728790       2.59274898       0.17471568       0.00000000
Si       2.78271210      -0.12225102      -2.54028432       0.00000000
Si       2.78271210       2.59274898       0.17471568       0.00000000
Si       0.06771210      -2.83725102      -2.54028432       0.00000000
