10
Lattice="10.86 0.0 0.0 0.0 10.86 0.0 0.0 0.0 10.86" Properties=species:S:1:pos:R:3:initial_magmoms:R:1 pbc="T T T"
Si       1.12545438      -1.27455132      -1.40407854       0.00000000
Si       1.12545438       1.44044868       1.31092146       0.00000000
Si      -1.58954562       1.44044868      -1.40407854       0.00000000
Si      -0.47294214      -2.50284990       2.51413344       0.00000000
Si       2.48295438      -2.63205132      -0.04657854       0.00000000
Si       2.48295438       0.08294868       2.66842146       0.00000000
Si       2.48295438       0.08294868      -2.76157854       0.00000000
Si       2.48295438       2.79794868      -0.04657854       0.00000000
Si      -0.05485386      -2.34364230      -3.04180998       0.00000000
Si      -0.23204562       2.79794868       2.66842146       0.00000000
