10
Lattice="10.86 0.0 0.0 0.0 10.86 0.0 0.0 0.0 10.86" Properties=species:S:1:pos:R:3:initial_magmoms:R:1 pbc="T T T"
Si       1.36052994       1.33639902       1.32013074       0.00000000
Si      -1.23238194      -1.39682406       1.43065296       0.00000000
Si      -1.35447006       1.33639902      -1.39486926       0.00000000
Si       1.36052994      -1.37860098      -1.39486926       0.00000000
Si      -2.66338242      -2.70471558       0.06002322       0.00000000
Si       0.00302994       2.69389902       2.67763074       0.00000000
Si       2.68378836      -0.03299268       2.68792602       0.00000000
Si      -2.71197006       2.69389902      -0.03736926       0.00000000
Si      -2.70835368      -0.02625948       2.70197886       0.00000000
Si       2.71802994       2.69389902      -0.03736926       0.00000000
