10
Lattice="16.2900001489832 0.0 0.0 0.0 16.2900001489832 0.0 0.0 0.0 29.48209827789657" Properties=species:S:1:pos:R:3:initial_magmoms:R:1 pbc="T T T"
Si      -1.30533400      -1.26172567      -1.45930490       0.00000000
Si       0.41275602       1.91969507      -1.30558524       0.00000000
Si      -1.12187602       0.22105530       2.07032139       0.00000000
Si       2.06001713      -1.10757340       0.53943395       0.00000000
H        1.91842119      -0.31516263      -2.62591153       0.00000000
Si      -0.24838992      -3.39107304      -1.26410393       0.00000000
Si       1.35907471       0.95434966      -3.27929379       0.00000000
Si       0.67655629       0.49477617       3.63340327       0.00000000
Si       2.18109907       3.09508374      -0.39078521       0.00000000
Si       1.46041480      -2.77534362       2.16725853       0.00000000
