10
Lattice="16.2900001489832 0.0 0.0 0.0 16.2900001489832 0.0 0.0 0.0 29.48209827789657" Properties=species:S:1:pos:R:3:initial_magmoms:R:1 pbc="T T T"
Si       1.77129317      -0.77387275      -1.26224656       0.00000000
Si       1.16128153       1.38349342       1.47389854       0.00000000
Si      -0.80840755       1.35990550      -1.73826451       0.00000000
Si      -1.36409203      -1.58498443       1.11636913       0.00000000
H       -0.80511697       2.82183919      -1.31734860       0.00000000
Si       2.79287166       1.49358124      -1.67251944       0.00000000
Si       2.03838401       3.00637166       0.01795460       0.00000000
Si      -3.06307389       0.93444328      -1.79516496       0.00000000
Si       0.74534896      -2.15288642      -2.92651100       0.00000000
Si      -2.89061166      -0.18257832       2.32168576       0.00000000
