10
Lattice="16.2900001489832 0.0 0.0 0.0 16.2900001489832 0.0 0.0 0.0 29.48209827789657" Properties=species:S:1:pos:R:3:initial_magmoms:R:1 pbc="T T T"
Si      -1.09512784      -1.49947822       1.43583715       0.00000000
Si       1.83555722       0.97422346       1.10251255       0.00000000
Si       0.62995060      -1.93163564      -1.22521704       0.00000000
Si      -1.65825686       1.31313691      -1.08225835       0.00000000
H       -1.37725435      -1.24483294      -2.33722282       0.00000000
H       -1.78313600       2.57124946      -0.24862253       0.00000000
Si      -0.92600506      -3.29193210      -0.07223114       0.00000000
Si       2.55125837       2.52446295      -0.50320045       0.00000000
Si      -0.45336699       1.97255612      -3.01537005       0.00000000
Si      -3.26347347      -0.69711427       1.51673603       0.00000000
