10
Lattice="16.2900001489832 0.0 0.0 0.0 16.2900001489832 0.0 0.0 0.0 29.48209827789657" Properties=species:S:1:pos:R:3:initial_magmoms:R:1 pbc="T T T"
Si      -1.41690421       1.39272985      -1.23724574       0.00000000
Si      -1.40481703      -1.36822643       1.28444658       0.00000000
Si       1.29085219      -1.40892048      -1.39385464       0.00000000
Si       1.35503479       1.39198051       1.36490322       0.00000000
Si       2.64502361      -0.06216264       2.65887252       0.00000000
Si       2.67556736       0.00622278      -2.67216010       0.00000000
Si      -2.74020609       0.03873762      -2.62727065       0.00000000
Si       2.60519456      -2.77288383       0.04154028       0.00000000
Si      -0.08584830       2.70182684      -2.70399192       0.00000000
Si      -0.09917352      -2.63795281       2.77193636       0.00000000
