10
Lattice="16.2900001489832 0.0 0.0 0.0 16.2900001489832 0.0 0.0 0.0 29.48209827789657" Properties=species:S:1:pos:R:3:initial_magmoms:R:1 pbc="T T T"
Si       1.25403679      -1.24820171      -1.53578146       0.00000000
Si      -0.94669336      -1.74041547       1.28067287       0.00000000
Si       1.82959508       0.81044380       1.26837883       0.00000000
Si      -1.48473577       1.49820760      -1.10251255       0.00000000
Si       2.55968030      -2.51792809      -0.04829168       0.00000000
Si       0.86542255      -3.40014657       1.35431915       0.00000000
Si      -2.79536403       0.07341903      -2.52343176       0.00000000
Si      -0.11148876       2.79779124      -2.57853380       0.00000000
Si       2.68842017       2.71389773       0.10483834       0.00000000
Si      -0.12544929      -2.61584822      -2.83856590       0.00000000
