10
Lattice="16.2900001489832 0.0 0.0 0.0 16.2900001489832 0.0 0.0 0.0 29.48209827789657" Properties=species:S:1:pos:R:3:initial_magmoms:R:1 pbc="T T T"
H        0.90598465       1.05163191       0.60261409       0.00000000
Si      -1.63220915       1.01198205      -1.28863303       0.00000000
Si      -0.71570116      -1.55023949       1.60571300       0.00000000
Si       1.08711316      -1.10849932      -1.77570678       0.00000000
H       -0.52092162       2.78338925       1.37666658       0.00000000
H        2.65292426      -1.03161851       1.62520067       0.00000000
H       -2.73983142       1.83241162      -0.33606644       0.00000000
Si      -0.38620332       2.65139138      -2.40803882       0.00000000
Si      -2.55125837      -2.52446295       0.50320045       0.00000000
Si       1.93127726      -3.02955070      -0.66399582       0.00000000
