10
Lattice="16.2900001489832 0.0 0.0 0.0 16.2900001489832 0.0 0.0 0.0 29.48209827789657" Properties=species:S:1:pos:R:3:initial_magmoms:R:1 pbc="T T T"
Si       0.94669336       1.74041547      -1.28067287       0.00000000
Si      -1.76648762      -1.01619464      -1.19706164       0.00000000
Si      -1.08380629       0.88150892       1.93225672       0.00000000
Si       1.81211591      -1.65973110       0.07364628       0.00000000
H       -2.27152649       1.76527401       1.52788026       0.00000000
Si      -0.46481886      -2.25327355      -2.71079049       0.00000000
Si       2.20073015       0.49221376      -2.81645433       0.00000000
Si       2.77628844       2.55085927      -0.01229403       0.00000000
Si       0.86074732      -3.48380387      -1.19809351       0.00000000
Si       2.43561566      -1.67501112       2.40184758       0.00000000
