10
Lattice="16.2900001489832 0.0 0.0 0.0 16.2900001489832 0.0 0.0 0.0 29.48209827789657" Properties=species:S:1:pos:R:3:initial_magmoms:R:1 pbc="T T T"
Si       1.16079283       0.63687385      -1.86079212       0.00000000
Si      -1.91519903       1.24857964       0.08505585       0.00000000
Si       1.46834803       0.17528040       1.80362633       0.00000000
Si      -1.07618257      -2.07707276      -0.23246635       0.00000000
Si      -1.30777750      -2.05477175       2.11637242       0.00000000
H        2.93342178      -1.57180582      -0.06565663       0.00000000
Si      -2.82071127      -0.14574663       1.82393949       0.00000000
Si       3.42368562       0.02282229       0.52713992       0.00000000
Si       0.83702908      -1.62448768       3.09102111       0.00000000
Si      -2.43905285       1.44697555      -2.22622272       0.00000000
