10
Lattice="16.2900001489832 0.0 0.0 0.0 16.2900001489832 0.0 0.0 0.0 29.48209827789657" Properties=species:S:1:pos:R:3:initial_magmoms:R:1 pbc="T T T"
Si       1.18420156       2.04322214      -0.23464802       0.00000000
Si      -1.82404019      -0.17879904      -1.54179581       0.00000000
Si       1.25809300      -1.92349064      -0.81146527       0.00000000
Si      -1.12875040       0.34024923       2.17053104       0.00000000
Si      -2.90991531      -2.10588977      -0.72915125       0.00000000
Si      -1.85142368       2.58815522       2.03099227       0.00000000
Si       0.26832888       3.47745402       1.46470012       0.00000000
Si       1.00499527      -3.70623567       0.67245718       0.00000000
Si       0.33024717      -2.64710873      -2.91610382       0.00000000
Si       0.67096882       3.15349968      -2.32790648       0.00000000
