10
Lattice="16.2900001489832 0.0 0.0 0.0 16.2900001489832 0.0 0.0 0.0 29.48209827789657" Properties=species:S:1:pos:R:3:initial_magmoms:R:1 pbc="T T T"
Si      -1.50436522      -1.14174982       1.37946738       0.00000000
Si       1.37731951      -1.41112126      -1.27336131       0.00000000
Si       1.42610806       1.26053650       1.38288730       0.00000000
Si      -1.37906254       1.47101959      -1.22952143       0.00000000
H        0.42681429       2.04638240       2.19603305       0.00000000
Si      -0.08060292      -2.55795356       2.59280313       0.00000000
H       -1.65464048       1.61917714       2.82335314       0.00000000
Si       2.66804138      -0.00061902      -2.67299444       0.00000000
Si      -0.04575861      -2.74385505      -2.60713143       0.00000000
Si      -2.70027929       0.10884978      -2.65044064       0.00000000
