10
Lattice="16.2900001489832 0.0 0.0 0.0 16.2900001489832 0.0 0.0 0.0 29.48209827789657" Properties=species:S:1:pos:R:3:initial_magmoms:R:1 pbc="T T T"
Si      -1.89227900      -1.02727999      -0.89770041       0.00000000
Si       1.30961827      -1.42423471       1.31118684       0.00000000
Si       1.13888278       0.99418360      -1.79885023       0.00000000
Si      -0.87651604       1.48744154       1.60385563       0.00000000
H       -1.80455735      -0.60960439      -2.35668101       0.00000000
Si      -2.67077810       0.14011453       2.33787143       0.00000000
Si       3.37738944      -0.33128973       1.51266750       0.00000000
Si      -3.71423406       0.08156403       0.06179448       0.00000000
Si       2.85641895       2.29094417      -0.85742786       0.00000000
Si       2.81771391       1.98891128       1.49957745       0.00000000
