10
Lattice="16.2900001489832 0.0 0.0 0.0 16.2900001489832 0.0 0.0 0.0 29.48209827789657" Properties=species:S:1:pos:R:3:initial_magmoms:R:1 pbc="T T T"
Si      -0.16267194       0.02261052      -1.49261967       0.00000000
H        0.63275248      -2.14762475      -0.20024241       0.00000000
Si      -0.77941135       1.95142799       1.99994762       0.00000000
Si      -1.89089435       1.63691696      -1.70076329       0.00000000
H        0.32350311       2.80557786       1.37604745       0.00000000
Si      -2.66370824       1.72219511       0.48707375       0.00000000
Si       1.72605584       0.91727362      -2.58242543       0.00000000
Si       0.70068178      -3.08227980       0.99404791       0.00000000
Si      -1.00072729      -1.90724951      -2.59351070       0.00000000
Si       0.32198814       0.35754921       3.45002462       0.00000000
