10
Lattice="16.2900001489832 0.0 0.0 0.0 16.2900001489832 0.0 0.0 0.0 29.48209827789657" Properties=species:S:1:pos:R:3:initial_magmoms:R:1 pbc="T T T"
Si       0.98124445      -2.02313657      -0.78667083       0.00000000
Si       0.58275847       1.85173319      -1.44751206       0.00000000
Si      -2.41116926      -0.17223417       0.21710617       0.00000000
Si       1.41835402       0.14333571       2.04918272       0.00000000
H       -3.12127806      -0.24801525      -1.12730699       0.00000000
Si       0.05548374       3.66738402       0.05542634       0.00000000
Si       1.55108494      -3.07669233       1.27412784       0.00000000
Si       2.96745159       1.76251286      -1.47908739       0.00000000
Si      -3.10279217       1.89783389       1.33211913       0.00000000
H       -2.86262869      -0.69374224      -2.56217123       0.00000000
