10
Lattice="16.2900001489832 0.0 0.0 0.0 16.2900001489832 0.0 0.0 0.0 29.48209827789657" Properties=species:S:1:pos:R:3:initial_magmoms:R:1 pbc="T T T"
Si       1.06295509      -0.66979594      -0.81485571       0.00000000
H        0.34266015      -0.08851986       1.95985197       0.00000000
Si      -1.03604401      -0.65787166       2.11790549       0.00000000
H        1.18109017       1.45202545       1.63755367       0.00000000
Si      -2.48359623       0.27722322       0.48784028       0.00000000
Si       1.31518945       0.74868841      -2.66161435       0.00000000
Si       0.42868764      -2.84322405      -1.37144825       0.00000000
Si       3.14713029      -0.56524672       0.24166476       0.00000000
Si       2.64689696       1.44122518       1.30269599       0.00000000
Si      -1.82096138       2.70905960       0.51316540       0.00000000
