10
Lattice="16.2900001489832 0.0 0.0 0.0 16.2900001489832 0.0 0.0 0.0 29.48209827789657" Properties=species:S:1:pos:R:3:initial_magmoms:R:1 pbc="T T T"
Si      -1.40199886       1.56351259      -1.04800015       0.00000000
Si       0.87651604      -1.48744154      -1.60385563       0.00000000
Si      -1.79426207      -1.34732702       0.73401580       0.00000000
Si       1.78323374       1.08002538       1.20599471       0.00000000
H        1.30785895      -1.38098248       2.32354313       0.00000000
Si      -2.83771803      -1.40587751      -1.54206115       0.00000000
Si       0.03528414       3.40221377      -1.03473320       0.00000000
Si       2.18613431      -2.91167626      -0.29266879       0.00000000
Si       1.30456837      -2.84291616       1.90262721       0.00000000
Si      -1.01576296      -2.51472153      -2.50155604       0.00000000
