10
Lattice="16.2900001489832 0.0 0.0 0.0 16.2900001489832 0.0 0.0 0.0 29.48209827789657" Properties=species:S:1:pos:R:3:initial_magmoms:R:1 pbc="T T T"
Si       1.37448505      -1.32866128       1.40282604       0.00000000
Si       1.50954544       1.25393905      -1.34022671       0.00000000
Si      -1.31955517      -1.41335299      -1.38860683       0.00000000
Si      -1.38693061       1.36694278       1.37099422       0.00000000
H       -2.13188861      -0.60618349      -2.36413998       0.00000000
Si      -0.01023012      -2.74380455       2.68113150       0.00000000
Si       2.64717389      -0.23021028      -2.79466706       0.00000000
Si       0.00728163       2.71795394       2.74239530       0.00000000
Si       2.77537620      -2.68879647       0.10127985       0.00000000
Si      -2.70547580       2.78580180      -0.00166869       0.00000000
