10
Lattice="16.2900001489832 0.0 0.0 0.0 16.2900001489832 0.0 0.0 0.0 29.48209827789657" Properties=species:S:1:pos:R:3:initial_magmoms:R:1 pbc="T T T"
Si       1.28998882      -1.45414315       1.29396929       0.00000000
Si       1.36332640       1.34109055      -1.34624105       0.00000000
Si      -1.32546844       1.20189250       1.56016316       0.00000000
Si      -1.35503479      -1.39198051      -1.36490322       0.00000000
Si      -0.41275602      -2.33815259       2.65362470       0.00000000
Si      -2.18429354      -0.70156144       2.72370365       0.00000000
Si       2.69768918       2.64310139       0.11701445       0.00000000
Si      -0.04667085       2.66085749      -2.69749406       0.00000000
Si      -2.77193901       0.00074934      -2.60214896       0.00000000
Si       2.71827974      -0.06351471      -2.66615459       0.00000000
