10
Lattice="16.2900001489832 0.0 0.0 0.0 16.2900001489832 0.0 0.0 0.0 29.48209827789657" Properties=species:S:1:pos:R:3:initial_magmoms:R:1 pbc="T T T"
Si      -0.46740897       0.20414628      -1.44394473       0.00000000
H        0.88327639      -1.21968118       1.82971798       0.00000000
Si       1.54139239      -0.40619115      -2.45196715       0.00000000
H       -1.99959752       1.44822988       1.72042784       0.00000000
H        1.90890783      -1.64974859      -1.67977203       0.00000000
Si      -2.16386588      -1.26195373      -2.10337082       0.00000000
Si       2.63815901       1.47782881      -1.46484754       0.00000000
Si      -0.67422682       2.49419450      -2.14859636       0.00000000
H       -0.56593090       2.59328657       2.07801621       0.00000000
Si       0.05592357      -1.96546508       2.85607827       0.00000000
