10
Lattice="16.2900001489832 0.0 0.0 0.0 16.2900001489832 0.0 0.0 0.0 29.48209827789657" Properties=species:S:1:pos:R:3:initial_magmoms:R:1 pbc="T T T"
Si      -0.08772165      -0.41767560       1.45898060       0.00000000
Si       0.03389949       0.71050497      -2.40090416       0.00000000
Si      -1.30663720      -1.22437270      -2.28610086       0.00000000
Si      -0.51515496       2.64207512      -1.18960267       0.00000000
Si       1.80455735       0.60960439       2.35668101       0.00000000
Si      -0.22509522      -2.75105523       1.46363877       0.00000000
Si      -1.90967672       0.69116842       2.41847549       0.00000000
Si      -1.29132460      -2.86545990      -0.60848103       0.00000000
Si      -1.59410683       2.68757309       0.98364073       0.00000000
H        1.65633464      -2.50932791      -1.47664037       0.00000000
