10
Lattice="16.2900001489832 0.0 0.0 0.0 16.2900001489832 0.0 0.0 0.0 29.48209827789657" Properties=species:S:1:pos:R:3:initial_magmoms:R:1 pbc="T T T"
H       -0.86174101      -0.98599999      -0.75742459       0.00000000
Si       1.25753914      -1.24210762       1.53212568       0.00000000
Si      -1.37950237       1.43119543       1.27392147       0.00000000
Si       1.73452664       0.77327490      -1.41602518       0.00000000
H        0.67456891      -1.09653627      -2.56880470       0.00000000
H       -2.19183581       2.23836494       0.29838832       0.00000000
H       -2.60868062       1.09725043      -1.78001117       0.00000000
Si       2.64096740      -2.53488204       0.22244243       0.00000000
Si       2.58722669       2.61433814      -0.13213876       0.00000000
Si      -0.15991893      -2.70863118       2.64946773       0.00000000
