10
Lattice="16.2900001489832 0.0 0.0 0.0 16.2900001489832 0.0 0.0 0.0 29.48209827789657" Properties=species:S:1:pos:R:3:initial_magmoms:R:1 pbc="T T T"
H        0.46740897      -0.20414628       1.44394473       0.00000000
Si       2.00880137      -0.61033744      -1.00802242       0.00000000
Si      -1.69645691      -1.46610001      -0.65942609       0.00000000
Si      -0.20681784       2.29004822      -0.70465163       0.00000000
H        2.37631680      -1.85389487      -0.23582730       0.00000000
Si       3.10556798       1.27368253      -0.02090281       0.00000000
Si      -1.65775187      -1.16406712      -3.01643140       0.00000000
Si       1.76352284       3.25837470       0.33429751       0.00000000
H       -1.53218854       1.24408360       3.16437257       0.00000000
Si      -3.60745311      -0.88754437       0.65084680       0.00000000
