10
Lattice="16.2900001489832 0.0 0.0 0.0 16.2900001489832 0.0 0.0 0.0 29.48209827789657" Properties=species:S:1:pos:R:3:initial_magmoms:R:1 pbc="T T T"
H       -1.46580679       0.01080027       0.33485767       0.00000000
Si       0.50023332      -2.00647190      -1.06103123       0.00000000
Si       1.06622938       0.11440467       2.07211980       0.00000000
Si      -0.01531260       1.64108720      -1.67761984       0.00000000
H       -2.30423681      -1.52974504       0.65715597       0.00000000
H        2.94765924       0.35613198      -0.86815935       0.00000000
H        1.29132460       2.86545990       0.60848103       0.00000000
H       -2.64689696      -1.44122518      -1.30269599       0.00000000
Si      -1.58394187      -2.11102112      -2.11755171       0.00000000
Si       1.20360295       2.44778429       2.06746162       0.00000000
