10
Lattice="16.2900001489832 0.0 0.0 0.0 16.2900001489832 0.0 0.0 0.0 29.48209827789657" Properties=species:S:1:pos:R:3:initial_magmoms:R:1 pbc="T T T"
Si      -1.37731951       1.41112126       1.27336131       0.00000000
Si      -1.42307812      -1.33273378      -1.33377013       0.00000000
Si       1.29072187       1.41050224      -1.39963313       0.00000000
Si       1.37275831      -1.31859406       1.45163955       0.00000000
Si       2.65326635      -2.63033003      -0.02559046       0.00000000
Si       0.04878855       2.67165776       2.65624861       0.00000000
Si       2.67286322       0.04667085      -2.74451801       0.00000000
Si      -2.71972955       0.11688075      -2.70810762       0.00000000
Si       2.64285704       2.79248070      -0.02220002       0.00000000
Si      -0.02919168      -2.67400352       2.77541525       0.00000000
