10
Lattice="16.2900001489832 0.0 0.0 0.0 16.2900001489832 0.0 0.0 0.0 29.48209827789657" Properties=species:S:1:pos:R:3:initial_magmoms:R:1 pbc="T T T"
Si       0.77281390      -0.08527815      -2.18783703       0.00000000
Si      -1.23750244      -1.76674826       1.07188065       0.00000000
Si      -1.47054718       1.91225054       0.15486946       0.00000000
Si       1.88429690       0.22923288       1.51287387       0.00000000
H        2.66370824      -1.72219511      -0.48707375       0.00000000
Si      -1.25392276      -0.29818845       2.99924334       0.00000000
H        2.98721136       1.08338275       0.88897371       0.00000000
Si       0.46511208       1.35252613       2.99936127       0.00000000
Si       2.50103630      -1.69958459      -1.97969342       0.00000000
Si      -0.28983168       3.20114793       1.79469325       0.00000000
