10
Lattice="16.2900001489832 0.0 0.0 0.0 16.2900001489832 0.0 0.0 0.0 29.48209827789657" Properties=species:S:1:pos:R:3:initial_magmoms:R:1 pbc="T T T"
Si      -1.25304310      -1.49467267       1.30240117       0.00000000
Si       1.34102539      -1.37384974      -1.37604746       0.00000000
Si       1.34695495       1.27713601       1.47495989       0.00000000
Si      -1.39145923       1.37878561      -1.33795658       0.00000000
H       -2.25233687      -0.70882678       2.11554693       0.00000000
H        0.42697719       1.96964021       2.46434963       0.00000000
Si       2.61957863       2.75178828       0.12025748       0.00000000
Si       2.65215863      -2.73704583       0.03776657       0.00000000
Si       2.74299168       0.02305035      -2.66111315       0.00000000
Si      -2.67915116      -2.75520918      -0.08048613       0.00000000
