10
Lattice="16.2900001489832 0.0 0.0 0.0 16.2900001489832 0.0 0.0 0.0 29.48209827789657" Properties=species:S:1:pos:R:3:initial_magmoms:R:1 pbc="T T T"
H        0.00329058       1.46193368       0.42091592       0.00000000
Si      -2.25466634      -0.42546222      -0.05690045       0.00000000
Si       0.80840755      -1.35990550       1.73826451       0.00000000
Si       0.88156594      -0.06876009      -2.19529600       0.00000000
H       -1.53301933       1.57246997       2.23229604       0.00000000
Si       2.57970071      -2.13377825       0.47601796       0.00000000
Si       3.60127920       0.13367574       0.06574508       0.00000000
Si      -3.09883044       1.49558915      -1.16861141       0.00000000
Si      -1.30456837       2.84291616      -1.90262721       0.00000000
Si       2.94933711       1.02418489      -1.99381534       0.00000000
