10
Lattice="16.2900001489832 0.0 0.0 0.0 16.2900001489832 0.0 0.0 0.0 29.48209827789657" Properties=species:S:1:pos:R:3:initial_magmoms:R:1 pbc="T T T"
Si       0.57200707       1.61565850      -1.59374327       0.00000000
Si      -1.18991935       1.31139388       1.53631214       0.00000000
Si      -1.59668065      -1.57325563      -0.73581421       0.00000000
Si       2.09859185      -0.70395607       0.83481509       0.00000000
Si      -1.47559871       2.62940150      -1.66603337       0.00000000
Si       0.58086883       1.76780711       2.94325684       0.00000000
Si       1.71641216      -0.24842250       3.14771519       0.00000000
Si      -0.33867399      -2.71445159      -2.36213520       0.00000000
Si       1.99471052      -3.02220228       0.81229077       0.00000000
Si      -1.36020198       3.48404007       0.58430571       0.00000000
