10
Lattice="16.2900001489832 0.0 0.0 0.0 16.2900001489832 0.0 0.0 0.0 29.48209827789657" Properties=species:S:1:pos:R:3:initial_magmoms:R:1 pbc="T T T"
Si       1.25800666      -1.14119596      -1.62632099       0.00000000
Si       1.59668065       1.57325563       0.73581421       0.00000000
Si      -2.06001713       1.10757340      -0.53943395       0.00000000
Si      -0.59960233      -1.66777022       1.62782457       0.00000000
H       -0.14159594       0.79241077      -3.16534548       0.00000000
Si       2.33121305      -2.57717576      -0.09540407       0.00000000
Si       0.40676130       2.88464952       2.27212635       0.00000000
Si      -2.30840705      -2.28349964      -1.80353788       0.00000000
Si      -2.56994300      -2.63609669       0.58887543       0.00000000
Si      -1.38346084       1.60234957       3.09396932       0.00000000
