10
Lattice="16.2900001489832 0.0 0.0 0.0 16.2900001489832 0.0 0.0 0.0 29.48209827789657" Properties=species:S:1:pos:R:3:initial_magmoms:R:1 pbc="T T T"
Si      -1.10291446      -0.85414987       0.62390016       0.00000000
H        2.23445045       0.09446571       0.16389098       0.00000000
H        2.49309981      -0.35126127      -1.27097326       0.00000000
H       -0.32350311      -2.80557786      -1.37604745       0.00000000
Si      -0.00151497      -2.44802864       2.07397717       0.00000000
Si      -2.52209927       0.26914338       2.11038756       0.00000000
Si      -2.98721136      -1.08338275      -0.88897371       0.00000000
Si       2.94455925       0.17024679       1.50830415       0.00000000
Si       0.42005394       1.81869707      -2.81969736       0.00000000
Si       2.18233711       0.01044189      -2.71294268       0.00000000
