10
Lattice="16.2900001489832 0.0 0.0 0.0 16.2900001489832 0.0 0.0 0.0 29.48209827789657" Properties=species:S:1:pos:R:3:initial_magmoms:R:1 pbc="T T T"
Si      -0.36751544       1.24355743      -0.77219512       0.00000000
H        1.96814479      -0.01203505      -1.36071676       0.00000000
Si       1.43210604      -1.56382861       1.61134408       0.00000000
H        1.30722690      -0.30571606       2.44497989       0.00000000
Si       2.63699590      -0.90440941      -0.32176762       0.00000000
Si      -2.37631680       1.85389487       0.23582730       0.00000000
H       -1.90890783       1.64974859       1.67977203       0.00000000
Si      -0.40372811       0.70618291      -3.09140438       0.00000000
Si       0.72925118       3.12757740       0.21492450       0.00000000
Si      -0.52872128      -2.93319860       1.93048780       0.00000000
