10
Lattice="16.2900001489832 0.0 0.0 0.0 16.2900001489832 0.0 0.0 0.0 29.48209827789657" Properties=species:S:1:pos:R:3:initial_magmoms:R:1 pbc="T T T"
Si      -1.27262368      -1.47465226       1.35470242       0.00000000
Si       0.83805535       1.92986003       1.10089103       0.00000000
Si      -1.31955517       1.21489518      -1.58212732       0.00000000
Si       1.47193183      -1.41195205      -1.28002426       0.00000000
H        1.63347976      -0.24037524       2.39326829       0.00000000
H       -2.19260144      -0.78214807       2.34409215       0.00000000
H        1.00072729       1.90724951       2.59351070       0.00000000
Si      -0.89016706       3.54416646       0.89274742       0.00000000
Si      -2.67584429       2.64430685      -0.32274053       0.00000000
Si      -2.61957863      -2.75178828      -0.12025748       0.00000000
