10
Lattice="16.2900001489832 0.0 0.0 0.0 16.2900001489832 0.0 0.0 0.0 29.48209827789657" Properties=species:S:1:pos:R:3:initial_magmoms:R:1 pbc="T T T"
Si       0.78679072       1.75593170      -1.32719562       0.00000000
Si       1.99515035      -1.33820722      -0.04802634       0.00000000
Si      -1.46295279      -1.62414559      -1.00610609       0.00000000
Si      -0.75414556       0.68685320       2.19284899       0.00000000
H        1.49102371      -2.38472570      -1.04994597       0.00000000
H       -0.40092948       2.63969678      -1.73157208       0.00000000
Si       1.23470056      -2.36866376       1.95652049       0.00000000
Si       2.16821531       3.06056523       0.09534511       0.00000000
Si      -0.97085143      -3.17138610       1.86262001       0.00000000
Si      -0.72148411      -1.99992332      -3.19854232       0.00000000
