10
Lattice="16.2900001489832 0.0 0.0 0.0 16.2900001489832 0.0 0.0 0.0 29.48209827789657" Properties=species:S:1:pos:R:3:initial_magmoms:R:1 pbc="T T T"
Si      -1.15870771       1.96447139      -0.67976874       0.00000000
Si      -0.86657914      -0.60393221       2.18450555       0.00000000
Si      -1.16854687      -2.06818331      -0.60544437       0.00000000
Si       2.42176916       0.62349487       0.02588528       0.00000000
H       -1.44296821      -1.96293361       1.85171163       0.00000000
Si       0.94366342       0.52109593      -3.08966494       0.00000000
Si       0.39747600      -3.35392044       0.83531629       0.00000000
Si      -2.73670373       0.73941451       2.40830416       0.00000000
Si       2.40534884       2.09205467       1.95324798       0.00000000
Si       0.06799446       3.74272039       0.19561372       0.00000000
