10
Lattice="16.2900001489832 0.0 0.0 0.0 16.2900001489832 0.0 0.0 0.0 29.48209827789657" Properties=species:S:1:pos:R:3:initial_magmoms:R:1 pbc="T T T"
Si       1.23955498       1.36313092       1.45750060       0.00000000
Si      -1.22316724       1.58474008      -1.25791269       0.00000000
Si       1.39040038      -1.36212094      -1.39308811       0.00000000
Si      -1.43713639      -1.38461743       1.33231371       0.00000000
H        0.43416108      -2.27509400      -2.16142107       0.00000000
Si       2.60102432      -0.04023630       2.75655850       0.00000000
Si      -2.74146042       0.42643962      -2.60503820       0.00000000
Si       2.58305645       2.81401608       0.19254758       0.00000000
Si      -0.10552662      -2.72937324       2.74074430       0.00000000
Si      -2.76983760       2.73706211       0.07709569       0.00000000
