10
Lattice="16.2900001489832 0.0 0.0 0.0 16.2900001489832 0.0 0.0 0.0 29.48209827789657" Properties=species:S:1:pos:R:3:initial_magmoms:R:1 pbc="T T T"
Si      -1.33272890      -1.38833155       1.33103419       0.00000000
Si       1.31382109      -1.27114129      -1.46147183       0.00000000
Si      -1.28110914       1.33690402      -1.44427788       0.00000000
Si       1.43746219       1.41340186       1.26543652       0.00000000
Si       2.15754536       0.60966955      -2.69044195       0.00000000
Si       0.39941451       2.32362191      -2.76028504       0.00000000
Si      -2.64308510       0.08707005       2.60710785       0.00000000
Si       2.72883566      -2.56329668      -0.10504177       0.00000000
Si      -2.65616597      -2.71507061      -0.16144102       0.00000000
Si      -2.63419076       2.76431529      -0.11254496       0.00000000
