10
Lattice="16.2900001489832 0.0 0.0 0.0 16.2900001489832 0.0 0.0 0.0 29.48209827789657" Properties=species:S:1:pos:R:3:initial_magmoms:R:1 pbc="T T T"
Si      -0.28095363       1.16737399       1.00772760       0.00000000
Si      -1.13508721      -1.68399506      -0.28391261       0.00000000
Si      -1.66858472      -0.29251953      -2.26354706       0.00000000
Si      -2.62914086       1.29238345       1.10307271       0.00000000
Si      -0.03847698       0.39581442       3.17722677       0.00000000
Si       0.80492149       3.09446472       0.19508304       0.00000000
Si       2.95920885       0.62615503      -1.17922497       0.00000000
Si       1.41982012       2.24642360      -1.93644318       0.00000000
Si       0.49311459      -3.01293327      -1.23768797       0.00000000
Si       2.53749332      -1.74926909      -1.22333019       0.00000000
