10
Lattice="16.2900001489832 0.0 0.0 0.0 16.2900001489832 0.0 0.0 0.0 29.48209827789657" Properties=species:S:1:pos:R:3:initial_magmoms:R:1 pbc="T T T"
Si       1.30318372       1.31388625      -1.45081406       0.00000000
Si      -1.44697555       1.33827238       1.31348644       0.00000000
Si      -1.33682257      -1.36746406      -1.42159730       0.00000000
Si       1.48421433      -1.32779791       1.32802112       0.00000000
Si       2.67077322       2.60986979      -0.07980804       0.00000000
Si      -0.07281630       2.58549995       2.75156423       0.00000000
Si      -2.61461018      -0.10930590       2.78470211       0.00000000
Si       2.67711654      -0.07250679      -2.75967181       0.00000000
Si      -2.75810880       2.70146846      -0.10032758       0.00000000
Si       2.75074734      -2.71010216      -0.10572280       0.00000000
