10
Lattice="16.2900001489832 0.0 0.0 0.0 16.2900001489832 0.0 0.0 0.0 29.48209827789657" Properties=species:S:1:pos:R:3:initial_magmoms:R:1 pbc="T T T"
Si      -1.37415925      -1.24722757      -1.43807779       0.00000000
Si      -1.24282927       1.46890189       1.35352313       0.00000000
Si       1.47791026       1.33783255      -1.33940121       0.00000000
Si       0.43056099      -1.74447983       1.59919746       0.00000000
Si      -2.54179388      -2.69480585       0.03313788       0.00000000
Si      -2.43284636       0.04155579       2.82093561       0.00000000
Si       0.07281630      -2.58549995      -2.75156423       0.00000000
Si       0.29466981       3.06657624       2.23197173       0.00000000
Si      -2.67936293       2.76695427      -0.00088446       0.00000000
Si       0.06519258       2.82965448      -2.63561114       0.00000000
