10
Lattice="16.2900001489832 0.0 0.0 0.0 16.2900001489832 0.0 0.0 0.0 29.48209827789657" Properties=species:S:1:pos:R:3:initial_magmoms:R:1 pbc="T T T"
Si       0.96265756       0.39327970       1.10947032       0.00000000
Si      -0.64773928       1.67937684       2.19370397       0.00000000
Si       2.39972879       1.70197107      -0.16294756       0.00000000
Si       1.58892661      -1.73236821       1.83074986       0.00000000
Si      -2.49772943       0.33346119       1.66432341       0.00000000
Si      -2.96652306      -0.31748884      -0.59029057       0.00000000
Si       0.31891911      -1.96445184      -2.31487539       0.00000000
Si       1.59176107      -2.83515235      -0.39276051       0.00000000
Si       0.81547252       3.17931118      -1.15180662       0.00000000
Si      -0.79894306       3.36369770       0.53374391       0.00000000
