10
Lattice="16.2900001489832 0.0 0.0 0.0 16.2900001489832 0.0 0.0 0.0 29.48209827789657" Properties=species:S:1:pos:R:3:initial_magmoms:R:1 pbc="T T T"
H       -0.57638908      -1.35900141      -0.33279393       0.00000000
Si      -1.87012460       1.34334672       0.22379861       0.00000000
Si       0.70156144      -0.54055889       2.19809680       0.00000000
Si       0.86657914       0.60393221      -2.18450555       0.00000000
Si      -0.30196773      -1.46425110      -2.78994992       0.00000000
Si      -0.52406559       2.80529278       1.47781966       0.00000000
Si       1.26405514      -2.74998823      -1.34918926       0.00000000
Si      -0.63897526      -2.47543657       2.31290009       0.00000000
Si       3.00017820      -0.87310328       1.82977695       0.00000000
Si       0.15250698       1.39101126       3.40939829       0.00000000
