10
Lattice="16.2900001489832 0.0 0.0 0.0 16.2900001489832 0.0 0.0 0.0 29.48209827789657" Properties=species:S:1:pos:R:3:initial_magmoms:R:1 pbc="T T T"
Si      -1.40094001      -1.34216569      -1.26825176       0.00000000
Si      -1.36114354       1.33696918       1.33837818       0.00000000
Si       1.24333426       1.14013711      -1.63664267       0.00000000
Si       1.41617116      -1.39168729       1.30085042       0.00000000
Si       0.19315053      -2.44092620      -2.52650084       0.00000000
Si       1.57053520      -0.65226790      -3.24203137       0.00000000
Si       2.70770753       2.49543417      -0.25479609       0.00000000
Si       0.06043590       2.64431174       2.67163532       0.00000000
Si      -2.67463883       2.67944276      -0.11553445       0.00000000
Si      -2.72007164      -0.09764226       2.63504803       0.00000000
