10
Lattice="16.2900001489832 0.0 0.0 0.0 16.2900001489832 0.0 0.0 0.0 29.48209827789657" Properties=species:S:1:pos:R:3:initial_magmoms:R:1 pbc="T T T"
Si      -0.25309773      -1.78274504       1.48392245       0.00000000
Si      -0.92784583      -0.72361810      -2.10463855       0.00000000
Si      -1.25809300       1.92349064       0.81146527       0.00000000
Si       2.44407832      -0.14405247       0.13470371       0.00000000
Si       1.01861371      -0.75640987       3.27513682       0.00000000
Si      -3.08213319       1.74469160      -0.73033054       0.00000000
Si      -0.14797836      -3.68900085      -0.07444230       0.00000000
Si       3.08100918       1.89692165      -0.79701904       0.00000000
Si       2.90588516       0.45144477       2.44837033       0.00000000
Si      -2.46723455       0.89665048      -2.86185676       0.00000000
