10
Lattice="16.2900001489832 0.0 0.0 0.0 16.2900001489832 0.0 0.0 0.0 29.48209827789657" Properties=species:S:1:pos:R:3:initial_magmoms:R:1 pbc="T T T"
Si      -1.16079283      -0.63687385       1.86079212       0.00000000
Si      -0.68787784      -1.09476946      -1.89994434       0.00000000
Si       0.03966615       2.28069776      -0.46127691       0.00000000
Si       2.37369737       0.24694011       0.14743997       0.00000000
Si       1.84019987       1.63841564      -1.83219448       0.00000000
Si       0.70045372      -2.93066877      -1.35941955       0.00000000
Si       2.26289279      -0.61405156       2.38793203       0.00000000
H        1.77262895      -2.20867967       1.79513548       0.00000000
Si       0.57537910       0.31245849      -3.28955356       0.00000000
Si      -2.24371946       2.64688067      -1.04484556       0.00000000
