10
Lattice="16.2900001489832 0.0 0.0 0.0 16.2900001489832 0.0 0.0 0.0 29.48209827789657" Properties=species:S:1:pos:R:3:initial_magmoms:R:1 pbc="T T T"
Si       1.91519903      -1.24857964      -0.08505585       0.00000000
Si       0.63426745       2.17342811       0.55659253       0.00000000
Si      -0.52385382       0.19839591      -2.31127858       0.00000000
Si      -0.90551224      -1.39432627       1.73888364       0.00000000
H       -0.42868764       2.84322405       1.37144825       0.00000000
Si       0.83901646      -3.32565240      -0.31752220       0.00000000
Si      -2.81249133       0.60303952      -1.93110692       0.00000000
Si       3.07599186      -0.61170580      -1.94584797       0.00000000
Si       0.83227240       2.03517488      -2.99069353       0.00000000
Si      -1.13744926      -0.10798641       3.69189576       0.00000000
