10
Lattice="16.2900001489832 0.0 0.0 0.0 16.2900001489832 0.0 0.0 0.0 29.48209827789657" Properties=species:S:1:pos:R:3:initial_magmoms:R:1 pbc="T T T"
Si       1.70310323       0.82627768      -1.49648183       0.00000000
Si      -0.99157231      -1.77596840      -1.34980839       0.00000000
Si      -1.73415197       1.76316446      -0.10430766       0.00000000
Si       0.81469549      -0.41254425       2.33321326       0.00000000
Si       0.49718709       2.16793838      -3.00466805       0.00000000
Si      -2.21771899      -0.56679427      -2.98173097       0.00000000
Si       3.03888324       2.32166711      -0.30130704       0.00000000
Si      -0.88931998       3.43517007      -1.59527634       0.00000000
Si      -3.48425200       0.81550999      -1.54798705       0.00000000
Si      -2.94145438      -2.59631651      -0.22341534       0.00000000
