10
Lattice="16.2900001489832 0.0 0.0 0.0 16.2900001489832 0.0 0.0 0.0 29.48209827789657" Properties=species:S:1:pos:R:3:initial_magmoms:R:1 pbc="T T T"
Si      -1.48982151      -0.33086619      -0.09395945       0.00000000
Si       2.00720495      -0.68680270       1.11200578       0.00000000
Si       2.03721113      -0.67667032      -1.28309040       0.00000000
Si      -0.28100250       2.55796985       1.25496448       0.00000000
Si      -1.31953888      -2.50351238       0.85804699       0.00000000
Si       1.37725435       1.24483294       2.33722282       0.00000000
Si      -2.24182982       1.18859986       1.57410819       0.00000000
Si      -1.69704823       1.08533755      -2.28400764       0.00000000
Si      -1.60521824      -1.18550476      -2.34429853       0.00000000
Si       0.45124929      -2.04709916       2.26499168       0.00000000
