10
Lattice="16.2900001489832 0.0 0.0 0.0 16.2900001489832 0.0 0.0 0.0 29.48209827789657" Properties=species:S:1:pos:R:3:initial_magmoms:R:1 pbc="T T T"
Si       1.44755222      -0.93509488       1.63006521       0.00000000
Si      -1.88727145      -1.20785464       0.82676648       0.00000000
Si      -0.46180684      -0.59549725      -2.31366663       0.00000000
Si       0.66263485       2.43183638       0.02532512       0.00000000
H        2.48359623      -0.27722322      -0.48784028       0.00000000
H       -1.32792497      -2.47736693       1.48014874       0.00000000
H        2.82625638      -0.36574308       1.47201168       0.00000000
Si       0.17512402       1.44547687      -3.24538938       0.00000000
Si      -2.90588516      -0.45144477      -2.44837033       0.00000000
Si      -0.61020712       3.30253689      -1.89678976       0.00000000
