10
Lattice="16.2900001489832 0.0 0.0 0.0 16.2900001489832 0.0 0.0 0.0 29.48209827789657" Properties=species:S:1:pos:R:3:initial_magmoms:R:1 pbc="T T T"
Si      -1.30575754       1.30976488       1.45707605       0.00000000
Si       0.92569555       1.78375502      -1.25002623       0.00000000
Si       1.47328390      -1.24887286       1.36838506       0.00000000
Si      -0.92662408      -1.77754853      -1.31907330       0.00000000
Si      -2.53775559       2.75600739       0.12215023       0.00000000
Si       2.73860966      -2.58251888      -0.11321421       0.00000000
Si      -2.60714773      -2.76426642      -0.00306614       0.00000000
Si       0.83150677      -3.49150089      -1.24923021       0.00000000
Si       0.11142360      -2.68776857       2.70664826       0.00000000
Si       0.10324602       2.77363317       2.65809124       0.00000000
