10
Lattice="16.2900001489832 0.0 0.0 0.0 16.2900001489832 0.0 0.0 0.0 29.48209827789657" Properties=species:S:1:pos:R:3:initial_magmoms:R:1 pbc="T T T"
Si      -1.38650707       1.26723169       1.40939171       0.00000000
Si       1.20591613      -1.34166070       1.50818622       0.00000000
Si       1.34578207       1.40432833      -1.32654701       0.00000000
Si      -1.34920297      -1.40608765      -1.33294463       0.00000000
Si      -2.23133906      -0.40477392       2.90036038       0.00000000
Si       2.54169614       0.15372873       2.70336100       0.00000000
Si      -0.49718709      -2.16793838       3.00466805       0.00000000
Si       2.70365132       0.00123804      -2.65757530       0.00000000
Si      -2.79488021       2.58523931       0.04885184       0.00000000
Si       2.61330698      -2.77399155       0.18933404       0.00000000
