10
Lattice="16.2900001489832 0.0 0.0 0.0 16.2900001489832 0.0 0.0 0.0 29.48209827789657" Properties=species:S:1:pos:R:3:initial_magmoms:R:1 pbc="T T T"
Si       1.36758950       1.29598354       1.37100602       0.00000000
Si       1.37393282      -1.38639304      -1.30885775       0.00000000
Si      -1.30318372      -1.31388625       1.45081406       0.00000000
Si      -1.31887099       1.41918481      -1.34128806       0.00000000
Si      -2.64000629      -2.68135031       0.02921676       0.00000000
Si      -2.67284693       0.03634299      -2.69425103       0.00000000
Si       2.73763226      -0.05734080      -2.64118620       0.00000000
Si       2.74680354       2.67556736      -0.00456973       0.00000000
Si       0.18103061      -2.64168416       2.77883517       0.00000000
Si      -2.65932623       2.78448231       0.06542078       0.00000000
