10
Lattice="16.2900001489832 0.0 0.0 0.0 16.2900001489832 0.0 0.0 0.0 29.48209827789657" Properties=species:S:1:pos:R:3:initial_magmoms:R:1 pbc="T T T"
Si      -1.03016332      -1.70281001      -1.26790712       0.00000000
Si       1.63546715       1.19465974      -1.23146725       0.00000000
Si       1.72568117      -1.13813344       1.28376849       0.00000000
Si      -1.81736129       1.80411752       0.02753628       0.00000000
H        0.39514653       1.41931513       2.17613264       0.00000000
H        2.74776465      -0.05538600       1.46994794       0.00000000
Si      -1.98672842      -0.01107720       2.85200974       0.00000000
Si      -2.43853646      -0.38480238      -2.62844699       0.00000000
Si       0.30990096       2.42519006      -2.74416423       0.00000000
Si      -1.87499531      -3.37481562       0.22306156       0.00000000
