10
Lattice="16.2900001489832 0.0 0.0 0.0 16.2900001489832 0.0 0.0 0.0 29.48209827789657" Properties=species:S:1:pos:R:3:initial_magmoms:R:1 pbc="T T T"
Si       0.65194210      -0.89050915       2.05956042       0.00000000
Si      -2.06777117      -1.09294498      -0.20148066       0.00000000
Si       1.26693847      -0.67109914      -1.90386546       0.00000000
Si      -0.55967554       2.32020101      -0.01309005       0.00000000
Si      -0.52097049       2.62223390      -2.37009536       0.00000000
Si       1.25937991       1.29267341      -3.21027620       0.00000000
Si      -2.94933711      -1.02418489       1.99381534       0.00000000
Si      -3.37738944       0.33128973      -1.51266750       0.00000000
Si      -1.57380949      -3.21590667      -1.13370461       0.00000000
Si      -0.10254555       0.62228126       3.75003445       0.00000000
