10
Lattice="16.2900001489832 0.0 0.0 0.0 16.2900001489832 0.0 0.0 0.0 29.48209827789657" Properties=species:S:1:pos:R:3:initial_magmoms:R:1 pbc="T T T"
H       -0.96265756      -0.39327970      -1.10947032       0.00000000
Si       1.43707123       1.30869137      -1.27241788       0.00000000
Si      -1.61039683       1.28609714       1.08423365       0.00000000
Si       0.62626906      -2.12564791       0.72127953       0.00000000
H        0.76147606       0.56787918       2.81492126       0.00000000
Si      -1.76160062       2.97041800      -0.57572642       0.00000000
Si      -3.46038699      -0.05981851       0.55485309       0.00000000
Si      -1.19060842      -2.45654668       2.24800999       0.00000000
Si      -0.14718504       2.78603148      -2.26127694       0.00000000
Si       0.62910352      -3.22843205      -1.50223084       0.00000000
