10
Lattice="16.2900001489832 0.0 0.0 0.0 16.2900001489832 0.0 0.0 0.0 29.48209827789657" Properties=species:S:1:pos:R:3:initial_magmoms:R:1 pbc="T T T"
H        0.74850922      -1.07994556      -0.74563175       0.00000000
Si      -1.17535609      -0.99790912       1.79038886       0.00000000
Si       1.98128756       0.69362821       1.16112296       0.00000000
Si      -1.56602287       1.28573713      -1.44076066       0.00000000
H       -1.84044422       1.39098682       1.01639534       0.00000000
H        0.05286105      -1.34589610      -2.96660666       0.00000000
Si      -1.26405514       2.74998823       1.34918926       0.00000000
Si      -0.39747600       3.35392044      -0.83531629       0.00000000
H       -2.02859372      -1.77310136      -2.33928657       0.00000000
Si       3.28377081      -1.23729067       1.34615261       0.00000000
