10
Lattice="16.2900001489832 0.0 0.0 0.0 16.2900001489832 0.0 0.0 0.0 29.48209827789657" Properties=species:S:1:pos:R:3:initial_magmoms:R:1 pbc="T T T"
Si      -0.92833453       0.49783869      -2.06941069       0.00000000
Si      -1.80907131      -0.84496231       1.27040101       0.00000000
Si       0.77012605       1.94541698       1.13161698       0.00000000
Si       1.65437984      -1.81721468      -0.10177545       0.00000000
Si       2.20330397       0.59383567       2.45066080       0.00000000
Si      -0.57707326      -2.29120481       2.60532683       0.00000000
Si       3.47063340      -0.82210744       1.03006000       0.00000000
Si       0.72868429      -3.60096969       1.14825078       0.00000000
Si      -3.24951294      -2.08357247      -0.08709336       0.00000000
Si      -0.75921175      -1.29461518      -3.57747898       0.00000000
