10
Lattice="16.2900001489832 0.0 0.0 0.0 16.2900001489832 0.0 0.0 0.0 29.48209827789657" Properties=species:S:1:pos:R:3:initial_magmoms:R:1 pbc="T T T"
Si      -1.71753617      -1.29676057      -0.94142236       0.00000000
Si       1.78035041      -1.32956049      -0.84018084       0.00000000
Si      -0.03870504      -0.30203289       2.35700531       0.00000000
Si       0.22978674       2.17579016      -0.95775544       0.00000000
Si       0.52097049      -2.62223390       2.37009536       0.00000000
Si       1.65775187       1.16406712       3.01643140       0.00000000
Si       3.63034056       0.01635516      -0.31080028       0.00000000
Si      -3.02819700       0.34355610      -2.03877554       0.00000000
Si       1.36347301       1.81920206      -2.98989751       0.00000000
Si      -2.85641895      -2.29094417       0.85742786       0.00000000
