10
Lattice="10.86 0.0 0.0 0.0 10.86 0.0 0.0 0.0 10.86" Properties=species:S:1:pos:R:3:initial_magmoms:R:1 pbc="T T T"
Si      -1.26027042       1.40613108      -1.27932972       0.00000000
Si      -1.26027042      -1.30886892       1.43567028       0.00000000
Si       1.38140286       1.30217916       1.33302156       0.00000000
Si       1.45472958      -1.30886892      -1.27932972       0.00000000
Si      -2.61777042       0.04863108      -2.63682972       0.00000000
Si      -2.61777042      -2.66636892       0.07817028       0.00000000
Si       0.09722958      -2.66636892      -2.63682972       0.00000000
Si      -2.61777042       2.76363108       0.07817028       0.00000000
Si       2.65359756      -0.02797536      -2.75459556       0.00000000
Si      -2.61777042       0.04863108       2.79317028       0.00000000
