10
Lattice="16.28999089631971 0.0 0.0 0.0 16.28999089631971 0.0 0.0 0.0 34.26581377546328" Properties=species:S:1:pos:R:3:initial_magmoms:R:1 pbc="T T T"
Si       1.69823250       1.14891741       1.11721110       0.00000000
Si       0.13782969      -0.52370721      -2.28257087       0.00000000
Si      -1.18371122      -1.62572734       1.24863427       0.00000000
Si       1.11423600       2.79653688      -1.87981027       0.00000000
Si      -0.81580320      -2.67801573      -2.27098902       0.00000000
Si       0.20026926       2.49693120       2.61476849       0.00000000
Si       2.43737496      -0.88457958      -2.56238566       0.00000000
Si      -2.52923116      -0.21105324       2.62309508       0.00000000
Si       2.91856527      -0.21572847       2.62696712       0.00000000
Si       3.09255876       2.40371982      -0.38126260       0.00000000
