10
Lattice="16.28999089631971 0.0 0.0 0.0 16.28999089631971 0.0 0.0 0.0 34.26581377546328" Properties=species:S:1:pos:R:3:initial_magmoms:R:1 pbc="T T T"
Si       1.33087182       0.25596477       1.87177112       0.00000000
Si      -1.01693161       2.00032308      -0.63148503       0.00000000
Si       1.01848990      -1.23227334      -1.71288046       0.00000000
Si      -1.87578928      -1.38512241       0.38233816       0.00000000
Si       2.21999631      -1.93525200       1.73203506       0.00000000
Si      -2.85605632      -0.89202411      -1.74635818       0.00000000
Si      -0.96206689      -1.74249243      -2.84221378       0.00000000
Si       0.61976608       3.66084260      -0.35256115       0.00000000
Si      -2.60290972       2.56344557       1.03582186       0.00000000
Si       0.06964301       1.24413297       3.64876295       0.00000000
