10
Lattice="16.28999089631971 0.0 0.0 0.0 16.28999089631971 0.0 0.0 0.0 34.26581377546328" Properties=species:S:1:pos:R:3:initial_magmoms:R:1 pbc="T T T"
Si       1.80856467       0.85950927       1.25444614       0.00000000
Si      -0.77327653      -1.84665069       1.28138594       0.00000000
Si      -1.42100602       1.93813533      -0.10063875       0.00000000
Si       2.97217566       0.90688059      -0.90660541       0.00000000
Si      -1.99220249      -0.29369241       2.69349462       0.00000000
Si       1.50175881       1.15269669      -2.79485840       0.00000000
Si      -0.27766305       2.68969307      -2.20665111       0.00000000
Si      -1.59010437      -0.77998149      -3.18031475       0.00000000
Si      -3.30513416       1.02763836       1.17306136       0.00000000
Si       0.74111355       2.43993249       2.70059107       0.00000000
