10
Lattice="16.28999089631971 0.0 0.0 0.0 16.28999089631971 0.0 0.0 0.0 34.26581377546328" Properties=species:S:1:pos:R:3:initial_magmoms:R:1 pbc="T T T"
Si       1.35013149       1.35791811       1.37866865       0.00000000
Si      -1.36489023      -1.35917570       1.38048474       0.00000000
Si      -1.22033277       1.36464588      -1.50975603       0.00000000
Si       1.48923180      -1.29294707      -1.40954560       0.00000000
Si       2.71456560       2.70293454      -0.01345619       0.00000000
Si      -2.71559187      -2.71204784       0.00928604       0.00000000
Si      -2.71829601       2.71265967      -0.01219864       0.00000000
Si       2.70883152      -2.73019848       0.00516043       0.00000000
Si       2.70604593       0.00128691       2.73748026       0.00000000
Si      -0.00925272      -2.71352102       2.73861103       0.00000000
