10
Lattice="16.28999089631971 0.0 0.0 0.0 16.28999089631971 0.0 0.0 0.0 34.26581377546328" Properties=species:S:1:pos:R:3:initial_magmoms:R:1 pbc="T T T"
Si       1.21959972      -1.43725140       1.41470603       0.00000000
Si      -1.48923180       1.29294707       1.40954560       0.00000000
Si      -0.87070050      -0.80348144      -2.15053536       0.00000000
Si       1.91697462       0.79439162      -1.62136811       0.00000000
Si       2.68589520       2.49830933      -0.13525752       0.00000000
Si       1.14935724      -1.38394839      -3.24837839       0.00000000
Si      -2.70956457       2.65759295      -0.10021043       0.00000000
Si       2.57772960      -0.06448559       2.79085272       0.00000000
Si       2.66706396      -2.73777626      -0.01951097       0.00000000
Si      -0.13910031       2.65086518       2.78821425       0.00000000
