10
Lattice="16.28999089631971 0.0 0.0 0.0 16.28999089631971 0.0 0.0 0.0 34.26581377546328" Properties=species:S:1:pos:R:3:initial_magmoms:R:1 pbc="T T T"
Si       1.81967445       1.24968735      -0.69453417       0.00000000
Si      -2.13750864       0.51764733      -0.81946739       0.00000000
Si      -0.34300224      -0.47371320       2.31863185       0.00000000
Si       0.64914021      -1.77108138      -1.47956440       0.00000000
Si       3.35334537      -0.50401260      -0.29650225       0.00000000
Si      -2.91441132      -1.75182660      -0.86617172       0.00000000
Si      -2.96556192       1.64871090       1.12655779       0.00000000
Si      -1.07067654      -3.27327513      -1.00580499       0.00000000
Si      -2.63741616      -0.16048908       2.60900052       0.00000000
Si       0.84543471      -0.56260773      -3.60175023       0.00000000
