10
Lattice="16.28999089631971 0.0 0.0 0.0 16.28999089631971 0.0 0.0 0.0 34.26581377546328" Properties=species:S:1:pos:R:3:initial_magmoms:R:1 pbc="T T T"
Si      -1.76834466      -1.32281316       0.81984432       0.00000000
Si      -1.17656154       1.90967670       0.79527572       0.00000000
Si       0.43499187      -0.23728014      -2.33305777       0.00000000
Si       1.81661193      -0.48550716       1.50481832       0.00000000
Si      -0.91171872       1.51003413       3.17195389       0.00000000
Si      -0.83535120      -3.42164934       1.17768241       0.00000000
Si       0.93069657       0.09747936       3.60956284       0.00000000
Si       2.72940579      -0.55050426      -2.62342643       0.00000000
Si      -3.44049524      -1.39274613      -0.93878102       0.00000000
Si      -2.37338784      -0.34974630       2.99688975       0.00000000
