10
Lattice="16.28999089631971 0.0 0.0 0.0 16.28999089631971 0.0 0.0 0.0 34.26581377546328" Properties=species:S:1:pos:R:3:initial_magmoms:R:1 pbc="T T T"
Si       1.88353125       0.90919377      -1.27890368       0.00000000
Si      -0.96097968      -1.84083516      -1.31087370       0.00000000
Si       0.21173742      -0.91241919       2.28573665       0.00000000
Si      -1.88729424       1.90490373      -0.09618419       0.00000000
Si      -2.15902773      -0.54325521      -2.80167730       0.00000000
Si       0.56881422       2.18284371      -2.78536676       0.00000000
Si       2.65351068       2.60218089       0.23088318       0.00000000
Si      -2.52271827      -2.89611765       0.25887837       0.00000000
Si      -3.51062532       0.75155544      -1.40959357       0.00000000
Si      -0.79329042       3.56915529      -1.44827969       0.00000000
