10
Lattice="16.28999089631971 0.0 0.0 0.0 16.28999089631971 0.0 0.0 0.0 34.26581377546328" Properties=species:S:1:pos:R:3:initial_magmoms:R:1 pbc="T T T"
Si      -1.68610622      -1.01246506       1.32725277       0.00000000
Si       1.31334867      -1.39897789      -1.43656078       0.00000000
Si      -1.39402164       1.31876656      -1.46599513       0.00000000
Si       0.91769715       1.67830804       1.57629685       0.00000000
Si      -3.36387590       0.75388963       0.93504605       0.00000000
Si       2.47943574       2.73359053       0.00654477       0.00000000
Si      -2.66389800       2.75607073      -0.15834241       0.00000000
Si       2.65349439      -0.03708215      -2.82168854       0.00000000
Si       2.74356180      -2.73324292       0.08467087       0.00000000
Si      -0.05960511       2.67866065      -2.83087179       0.00000000
