10
Lattice="16.28999089631971 0.0 0.0 0.0 16.28999089631971 0.0 0.0 0.0 34.26581377546328" Properties=species:S:1:pos:R:3:initial_magmoms:R:1 pbc="T T T"
Si       2.22578415       0.15812703      -0.85931856       0.00000000
Si      -1.05094935      -2.16347490      -0.21169432       0.00000000
Si      -0.63011349       1.49056758      -1.91940063       0.00000000
Si       0.27160317       0.81042750       2.38336001       0.00000000
Si      -0.70506378       2.85741261       1.73621549       0.00000000
Si      -0.36979929       3.45106908      -0.57532333       0.00000000
Si       2.96310213      -2.07875061      -0.25915249       0.00000000
Si      -2.88723960       2.13058539       1.12391932       0.00000000
Si      -3.39802884      -1.70569332      -0.44288589       0.00000000
Si      -0.95386095      -3.21751935       1.92748737       0.00000000
