10
Lattice="16.28999089631971 0.0 0.0 0.0 16.28999089631971 0.0 0.0 0.0 34.26581377546328" Properties=species:S:1:pos:R:3:initial_magmoms:R:1 pbc="T T T"
Si       1.56173859       1.05528249      -1.56975207       0.00000000
Si      -0.91769715      -1.67830804      -1.57629685       0.00000000
Si       1.46106639      -0.13126482       2.03240935       0.00000000
Si      -2.05724781       1.08851409       1.34866892       0.00000000
Si      -2.60380337      -2.69077310      -0.24904407       0.00000000
Si      -0.09883143       0.10774206       3.81121727       0.00000000
Si      -2.31171879      -0.35954148      -3.04229198       0.00000000
Si       2.52271827       2.89611765      -0.25887837       0.00000000
Si       0.36369054       2.35286244      -3.06055567       0.00000000
Si      -2.71886127       2.77588116      -0.32518275       0.00000000
