10
Lattice="16.28999089631971 0.0 0.0 0.0 16.28999089631971 0.0 0.0 0.0 34.26581377546328" Properties=species:S:1:pos:R:3:initial_magmoms:R:1 pbc="T T T"
Si      -1.77598467       1.15129575      -1.02036797       0.00000000
Si       0.33506901      -1.63077561      -1.70208672       0.00000000
Si       1.88328690       1.40155902       0.51439868       0.00000000
Si      -0.82264500      -0.94972329       2.06372832       0.00000000
Si      -3.24733005      -0.61136370      -1.60525148       0.00000000
Si       2.45951307       0.75106674       2.73544144       0.00000000
Si      -1.84710681      -2.35760283      -2.31438289       0.00000000
Si       3.62116926       0.70850097      -0.95505730       0.00000000
Si      -3.08917044      -0.34886664       2.23557147       0.00000000
Si       0.51906456      -0.14211396       3.83821874       0.00000000
