10
Lattice="16.28999089631971 0.0 0.0 0.0 16.28999089631971 0.0 0.0 0.0 34.26581377546328" Properties=species:S:1:pos:R:3:initial_magmoms:R:1 pbc="T T T"
Si      -2.26696527      -0.69954147       0.09316880       0.00000000
Si       0.04981482       1.84919193      -1.52301348       0.00000000
Si       0.47848617       1.37554389       2.02212960       0.00000000
Si       1.69616367      -1.63136205      -0.83115204       0.00000000
Si       2.29775337      -0.24202053       2.27193887       0.00000000
Si      -2.16728676       2.32303545      -0.99381195       0.00000000
Si       3.39501519      -0.47429964       0.20676004       0.00000000
Si      -1.97719875      -2.96937378       0.32024847       0.00000000
Si      -1.41599196       0.82637541       3.42740708       0.00000000
Si       0.00112401      -3.36219084       1.81879615       0.00000000
