10
Lattice="16.28999089631971 0.0 0.0 0.0 16.28999089631971 0.0 0.0 0.0 34.26581377546328" Properties=species:S:1:pos:R:3:initial_magmoms:R:1 pbc="T T T"
Si      -1.35332433       1.00597985       1.64575369       0.00000000
Si       2.28045339       0.61158771       0.18846208       0.00000000
Si      -0.07573221      -2.05977276       1.18131459       0.00000000
Si      -0.48853710       0.30610539      -2.35180118       0.00000000
Si      -3.24736263      -0.36999477       1.75362253       0.00000000
Si       1.67459571       0.08946468      -3.32553335       0.00000000
Si       2.86340733       1.58157234      -1.85635150       0.00000000
Si       2.50149240       1.89514506       2.11927323       0.00000000
Si      -2.35823814      -2.56121154       1.61388646       0.00000000
Si       1.57154517      -1.85596857       2.98342328       0.00000000
