10
Lattice="16.28999089631971 0.0 0.0 0.0 16.28999089631971 0.0 0.0 0.0 34.26581377546328" Properties=species:S:1:pos:R:3:initial_magmoms:R:1 pbc="T T T"
Si      -0.75103416       1.68498873       1.41836562       0.00000000
Si       2.26867572       0.41733351       0.34714715       0.00000000
Si      -0.86268582      -2.12111764       0.46968177       0.00000000
Si      -0.13610295       0.49863690      -2.31534233       0.00000000
Si      -0.04460202      -3.06184301      -1.48192874       0.00000000
Si       0.40700565       3.41138664       0.29365819       0.00000000
Si       2.52622062       2.63098161      -0.31123656       0.00000000
Si      -3.18047589      -1.76661629       0.59879543       0.00000000
Si      -0.64295001      -1.61967235      -3.25480867       0.00000000
Si      -3.83245056       0.52893630       0.29979177       0.00000000
