10
Lattice="16.28999089631971 0.0 0.0 0.0 16.28999089631971 0.0 0.0 0.0 34.26581377546328" Properties=species:S:1:pos:R:3:initial_magmoms:R:1 pbc="T T T"
Si       0.76892058       1.70391771       1.48611058       0.00000000
Si       1.84143789      -1.63148748       0.07840023       0.00000000
Si      -1.91697462      -0.79439162       1.62136811       0.00000000
Si       0.28812123       1.05316479      -2.46247982       0.00000000
Si      -0.76761738      -2.17834001      -1.62701028       0.00000000
Si      -2.78767512      -1.59787307      -0.52916726       0.00000000
Si      -1.70036649       2.58611895      -1.90744186       0.00000000
Si       2.70436806       2.47549356       0.25829585       0.00000000
Si       2.02300623       0.49331007       3.04899921       0.00000000
Si      -0.69737490      -2.23164303       3.03607414       0.00000000
