10
Lattice="16.28999089631971 0.0 0.0 0.0 16.28999089631971 0.0 0.0 0.0 34.26581377546328" Properties=species:S:1:pos:R:3:initial_magmoms:R:1 pbc="T T T"
Si       1.64111976       0.88907562       1.55764736       0.00000000
Si      -1.84143789       1.63148748      -0.07840023       0.00000000
Si       1.36886499      -0.15387534      -2.10659488       0.00000000
Si      -1.09134855      -1.90068040       1.52345692       0.00000000
Si      -2.60905527      -0.54685253      -1.70541050       0.00000000
Si      -1.27513233      -2.55881269      -1.56053456       0.00000000
Si       2.67429672       2.38302663       0.11797726       0.00000000
Si       0.18156834       2.12479755       2.97059898       0.00000000
Si      -1.07251731       3.33540519       1.40771036       0.00000000
Si      -2.53881279      -0.60015554       2.95767391       0.00000000
