10
Lattice="16.28999089631971 0.0 0.0 0.0 16.28999089631971 0.0 0.0 0.0 34.26581377546328" Properties=species:S:1:pos:R:3:initial_magmoms:R:1 pbc="T T T"
Si       1.35674523       1.35822762       1.35613887       0.00000000
Si      -1.35729909       1.35747828      -1.35740671       0.00000000
Si      -1.35795069      -1.35891180       1.35600181       0.00000000
Si       1.35843939      -1.35822762      -1.35805776       0.00000000
Si      -2.71199178       0.00032580       2.71543020       0.00000000
Si       0.00216657       2.71375110       2.71409383       0.00000000
Si      -2.71383255       2.71461447      -0.00027413       0.00000000
Si      -2.71466334      -2.71513575      -0.00061678       0.00000000
Si      -0.00022806       2.71534752      -2.71491621       0.00000000
Si       2.71549413       2.71498914       0.00013706       0.00000000
