10
Lattice="16.28999089631971 0.0 0.0 0.0 16.28999089631971 0.0 0.0 0.0 34.26581377546328" Properties=species:S:1:pos:R:3:initial_magmoms:R:1 pbc="T T T"
Si      -1.65439515      -1.52332728       0.49836227       0.00000000
Si       1.03564489       0.16703945       2.10333962       0.00000000
Si      -1.31082276       1.83636209      -0.73839443       0.00000000
Si       1.26122881      -0.98816820      -1.77699183       0.00000000
Si       2.81506675      -1.36995693       1.51513233       0.00000000
Si      -0.27679642      -3.30263511       1.12967598       0.00000000
Si       3.15526711       0.38780642      -1.88486067       0.00000000
Si       1.98927778       2.32134797       2.09175777       0.00000000
Si       1.61723047       3.45970946      -0.06565334       0.00000000
Si      -0.06964301      -1.24413297      -3.64876295       0.00000000
