10
Lattice="16.28999089631971 0.0 0.0 0.0 16.28999089631971 0.0 0.0 0.0 34.26581377546328" Properties=species:S:1:pos:R:3:initial_magmoms:R:1 pbc="T T T"
Si       2.31945165      -0.13041774      -0.28659943       0.00000000
Si       0.04022001      -0.40672872       2.31157309       0.00000000
Si      -0.73731798       2.23687764      -0.60016606       0.00000000
Si      -0.93401973      -2.21902380      -0.59564297       0.00000000
Si      -2.96310213       2.07875061       0.25915249       0.00000000
Si       1.04734926       1.45347525       3.27608775       0.00000000
Si       2.67314013      -1.88775036      -1.86197110       0.00000000
Si       1.57389093      -2.16042867       2.70960500       0.00000000
Si      -1.77945444      -1.65641607       3.00610726       0.00000000
Si       3.32557092      -1.18024308       1.58421225       0.00000000
