10
Lattice="16.28999089631971 0.0 0.0 0.0 16.28999089631971 0.0 0.0 0.0 34.26581377546328" Properties=species:S:1:pos:R:3:initial_magmoms:R:1 pbc="T T T"
Si      -0.22351509       2.10686715       1.03520508       0.00000000
Si      -1.81105704      -1.46797335       0.40416550       0.00000000
Si      -0.06092460       0.24943248      -2.36979074       0.00000000
Si       2.19815631      -0.95345370      -0.21237963       0.00000000
Si       1.48353030      -2.73202848       1.23908678       0.00000000
Si       2.18315322      -0.37691802      -2.60550540       0.00000000
Si      -0.60820344      -3.51495032       0.55054914       0.00000000
Si      -0.90567513       2.48670108      -2.56808711       0.00000000
Si       2.13249132       2.75654493       1.29881213       0.00000000
Si      -1.79155791       3.24353448      -0.42493059       0.00000000
