10
Lattice="16.28999089631971 0.0 0.0 0.0 16.28999089631971 0.0 0.0 0.0 34.26581377546328" Properties=species:S:1:pos:R:3:initial_magmoms:R:1 pbc="T T T"
Si      -1.90216701       1.18675908       0.78050714       0.00000000
Si       0.19771173      -2.36947824       0.24894128       0.00000000
Si      -0.48928644       0.59855976      -2.26360092       0.00000000
Si       2.00101473       1.17672444       0.66345506       0.00000000
Si       0.64052280      -2.34364230       2.62815512       0.00000000
Si      -1.19840643       3.38330268       0.07757785       0.00000000
Si      -3.60101853       0.02969667      -0.25740494       0.00000000
Si      -0.51350967       2.92653108      -2.11036412       0.00000000
Si       0.98202636       3.37543461       1.02972255       0.00000000
Si       2.31607962      -2.76372882      -1.05127575       0.00000000
