10
Lattice="16.28999089631971 0.0 0.0 0.0 16.28999089631971 0.0 0.0 0.0 34.26581377546328" Properties=species:S:1:pos:R:3:initial_magmoms:R:1 pbc="T T T"
Si      -0.19771173       2.36947824      -0.24894128       0.00000000
Si       0.44281107       0.02583594       2.37921384       0.00000000
Si      -1.97343576      -1.39649283      -0.34156182       0.00000000
Si       2.11836789      -0.39425058      -1.30021703       0.00000000
Si       2.60488503      -2.42654211       0.01329514       0.00000000
Si       2.25417762      -1.69811847       2.31729548       0.00000000
Si      -1.33595919      -2.52053541      -2.57226755       0.00000000
Si       1.52073666       0.15398937      -3.61110480       0.00000000
Si      -0.68699817       2.96803800      -2.51254220       0.00000000
Si      -2.26155699      -2.44965762       2.12091799       0.00000000
