10
Lattice="16.28999089631971 0.0 0.0 0.0 16.28999089631971 0.0 0.0 0.0 34.26581377546328" Properties=species:S:1:pos:R:3:initial_magmoms:R:1 pbc="T T T"
Si      -1.30504077       1.31944113       1.44790277       0.00000000
Si      -1.36130643      -1.34933328      -1.36946828       0.00000000
Si       1.35001746       1.36596537      -1.36864590       0.00000000
Si       1.21720509      -1.30067505       1.61933473       0.00000000
Si       0.48938418       2.34520614       2.68812033       0.00000000
Si      -2.37009726      -0.50368680       2.81075774       0.00000000
Si       2.70770751      -2.69288361       0.03258681       0.00000000
Si      -0.63731367      -2.28121902       3.00542194       0.00000000
Si       2.18678589       0.49741515       3.10215439       0.00000000
Si      -2.72201013      -2.70055620      -0.01082800       0.00000000
