10
Lattice="16.28999089631971 0.0 0.0 0.0 16.28999089631971 0.0 0.0 0.0 34.26581377546328" Properties=species:S:1:pos:R:3:initial_magmoms:R:1 pbc="T T T"
Si      -1.21720509       1.30067505      -1.61933473       0.00000000
Si      -1.85451876      -0.98054397       1.38608721       0.00000000
Si       0.96958080       1.79809020       1.48281965       0.00000000
Si       1.49050242      -1.39220856      -1.58674793       0.00000000
Si      -2.52224586       2.62011618      -0.17143196       0.00000000
Si      -2.62449819      -2.67353109      -0.12369966       0.00000000
Si       2.64989430       2.69205282      -0.08820025       0.00000000
Si      -3.58730235       0.79698825       1.19142301       0.00000000
Si      -0.72782091       3.64588119       1.06878559       0.00000000
Si      -2.57851152      -0.04865823      -2.98880301       0.00000000
