10
Lattice="16.28999089631971 0.0 0.0 0.0 16.28999089631971 0.0 0.0 0.0 34.26581377546328" Properties=species:S:1:pos:R:3:initial_magmoms:R:1 pbc="T T T"
Si      -1.34019459       1.84023243      -0.53125747       0.00000000
Si       2.27165679       0.56995452       0.13788571       0.00000000
Si      -0.52185015       0.08265546       2.29745557       0.00000000
Si      -0.09040950      -2.18271339      -0.92483483       0.00000000
Si      -3.28064310       0.94705173       0.57151983       0.00000000
Si       2.09600172      -2.97207792      -0.18983271       0.00000000
Si       3.28461786      -1.17530721      -1.05274918       0.00000000
Si      -0.35494281       3.58052571       0.78646940       0.00000000
Si      -2.76977241      -0.56710377       2.38397679       0.00000000
Si      -0.39467412       2.40924213       2.81473258       0.00000000
