10
Lattice="16.28999089631971 0.0 0.0 0.0 16.28999089631971 0.0 0.0 0.0 34.26581377546328" Properties=species:S:1:pos:R:3:initial_magmoms:R:1 pbc="T T T"
Si      -0.65397834      -0.57948417      -2.25373686       0.00000000
Si      -2.07109431      -0.74357334       1.07834268       0.00000000
Si       0.51733782       1.45062450      -1.92666948       0.00000000
Si       1.76244768      -1.73793123       0.06340447       0.00000000
Si       0.70112160       2.10875679       1.15732200       0.00000000
Si       1.98104319       0.72137007       2.60147951       0.00000000
Si      -0.75372201      -1.99990701       2.60964163       0.00000000
Si       0.63675981      -3.34707372       1.28906384       0.00000000
Si       3.40547337      -0.56637072       1.18091060       0.00000000
Si       0.81647109      -2.44662768      -2.73681657       0.00000000
