10
Lattice="16.28999089631971 0.0 0.0 0.0 16.28999089631971 0.0 0.0 0.0 34.26581377546328" Properties=species:S:1:pos:R:3:initial_magmoms:R:1 pbc="T T T"
Si      -1.35739683       1.35663720       1.35774936       0.00000000
Si       1.35827649       1.35763775      -1.35682419       0.00000000
Si      -1.35734796      -1.35896067      -1.35730391       0.00000000
Si       1.35791811      -1.35868374       1.35757803       0.00000000
Si       2.71191033      -0.00122175      -2.71618404       0.00000000
Si       2.71404432      -0.00195480       2.71405956       0.00000000
Si       0.00340461       2.71333149      -2.71477915       0.00000000
Si       2.71410948       2.71430237       0.00071958       0.00000000
Si      -2.71476108       2.71423721      -0.00013706       0.00000000
Si       0.00040725      -2.71572219       2.71381970       0.00000000
