10
Lattice="16.28999089631971 0.0 0.0 0.0 16.28999089631971 0.0 0.0 0.0 34.26581377546328" Properties=species:S:1:pos:R:3:initial_magmoms:R:1 pbc="T T T"
Si      -1.71789453       1.60212150      -0.45172648       0.00000000
Si       0.73427175       0.35223867       2.26116805       0.00000000
Si      -0.29012490      -2.34303957      -0.62363816       0.00000000
Si       1.39256694       1.19283525      -1.89137118       0.00000000
Si      -3.53074347       0.84149253       0.89149418       0.00000000
Si      -2.36868003      -2.94730083       0.52567214       0.00000000
Si      -0.55811169       3.77990946       0.15772563       0.00000000
Si       2.07964656       2.27550123       2.38736911       0.00000000
Si       1.75350447      -1.64129895       3.07398787       0.00000000
Si      -3.75733737      -1.14940611      -0.32203030       0.00000000
