10
Lattice="16.28999089631971 0.0 0.0 0.0 16.28999089631971 0.0 0.0 0.0 34.26581377546328" Properties=species:S:1:pos:R:3:initial_magmoms:R:1 pbc="T T T"
Si      -0.81808380       0.94072536       1.95161051       0.00000000
Si      -0.04836501      -2.35682091      -0.04300362       0.00000000
Si      -0.59834799       1.44217066      -1.77287993       0.00000000
Si       2.32145532      -0.04064355       0.55116592       0.00000000
Si       0.04460202       3.06184301       1.48192874       0.00000000
Si       0.68284422      -2.57118102       2.25366383       0.00000000
Si       3.04482906      -0.97389765      -1.46914759       0.00000000
Si      -0.08871534      -0.68452209       3.52523463       0.00000000
Si      -0.09150093       3.56047991      -0.83341359       0.00000000
Si       1.69945425      -2.89716021      -1.59534865       0.00000000
