10
Lattice="16.28999089631971 0.0 0.0 0.0 16.28999089631971 0.0 0.0 0.0 34.26581377546328" Properties=species:S:1:pos:R:3:initial_magmoms:R:1 pbc="T T T"
Si      -1.35583299      -1.35666462      -1.35754377       0.00000000
Si       1.35682668       1.35654323      -1.35740671       0.00000000
Si      -1.35672894       1.35724370       1.35692698       0.00000000
Si       1.35819504      -1.35807413       1.35720111       0.00000000
Si      -2.71070487      -0.00097088      -2.71549873       0.00000000
Si       0.00208512       2.71389119       2.71405956       0.00000000
Si      -2.71308321       0.00018245       2.71532740       0.00000000
Si      -2.71410948      -2.71430237      -0.00071958       0.00000000
Si      -2.71391400       2.71455908      -0.00071958       0.00000000
Si       2.71552671       0.00099532       2.71344278       0.00000000
