10
Lattice="16.28999089631971 0.0 0.0 0.0 16.28999089631971 0.0 0.0 0.0 34.26581377546328" Properties=species:S:1:pos:R:3:initial_magmoms:R:1 pbc="T T T"
Si       1.35759231       1.34597754       1.35425425       0.00000000
Si      -1.35343836       1.35615879      -1.35648153       0.00000000
Si      -1.34698752      -1.35099649       1.37162703       0.00000000
Si       1.36000323      -1.35673708      -1.35709831       0.00000000
Si      -2.70969489       2.71363707       0.00849793       0.00000000
Si      -2.71225242      -0.00048870      -2.71361411       0.00000000
Si      -2.70899442      -2.71822175       0.00373498       0.00000000
Si       0.00293220       2.71476108      -2.71405956       0.00000000
Si       0.00267156      -2.71580653      -2.71333998       0.00000000
Si       2.71528244      -2.71404672       0.00171329       0.00000000
