10
Lattice="16.28999089631971 0.0 0.0 0.0 16.28999089631971 0.0 0.0 0.0 34.26581377546328" Properties=species:S:1:pos:R:3:initial_magmoms:R:1 pbc="T T T"
Si      -0.07322355      -0.92746463      -2.07925074       0.00000000
Si      -1.32172173       1.73960910       0.80908485       0.00000000
Si       2.15110169       1.08546786      -0.08933103       0.00000000
Si      -0.62218026      -2.21763005       0.92349846       0.00000000
Si       0.62675435       1.07471646      -3.17263920       0.00000000
Si      -1.83747942      -1.30291981       2.68476228       0.00000000
Si      -1.31983209       1.03498515       3.09979004       0.00000000
Si       1.61199717      -3.04078004       0.82392195       0.00000000
Si       1.60454612      -2.69381933      -1.68704402       0.00000000
Si       1.48948822       2.77283493      -1.76318270       0.00000000
