10
Lattice="16.28999089631971 0.0 0.0 0.0 16.28999089631971 0.0 0.0 0.0 34.26581377546328" Properties=species:S:1:pos:R:3:initial_magmoms:R:1 pbc="T T T"
Si       0.07322355       0.92746463       2.07925074       0.00000000
Si       0.69997790       2.00218109      -1.09338846       0.00000000
Si      -2.02274559      -0.79058369      -1.01570782       0.00000000
Si       1.67776967      -1.76635469       0.39220672       0.00000000
Si       1.96985426       0.56487693      -2.40104118       0.00000000
Si      -0.54895671      -1.29016541       3.00274921       0.00000000
Si      -0.76435938      -2.16861995      -2.40624959       0.00000000
Si       3.36387590      -0.75388963      -0.93504605       0.00000000
Si       2.22432524       2.01293249       1.98991972       0.00000000
Si       0.47912148      -3.51490700      -0.85277378       0.00000000
