10
Lattice="16.28999089631971 0.0 0.0 0.0 16.28999089631971 0.0 0.0 0.0 34.26581377546328" Properties=species:S:1:pos:R:3:initial_magmoms:R:1 pbc="T T T"
Si       1.21529916      -0.91471023      -1.76126381       0.00000000
Si       0.28328310      -1.63507032       1.63379491       0.00000000
Si       0.51764733       2.33790496       0.41502777       0.00000000
Si      -2.35447515      -0.13066209      -0.59584857       0.00000000
Si       1.83747942       1.30291981      -2.68476228       0.00000000
Si       0.51575769       3.04252891      -1.87567743       0.00000000
Si      -3.35989395       0.78099799       1.33006257       0.00000000
Si      -0.44009064      -0.70181622       3.65410842       0.00000000
Si      -0.40379652      -2.71773630      -2.64494538       0.00000000
Si       2.31093198      -2.71309365       1.82256539       0.00000000
