10
Lattice="16.28999089631971 0.0 0.0 0.0 16.28999089631971 0.0 0.0 0.0 34.26581377546328" Properties=species:S:1:pos:R:3:initial_magmoms:R:1 pbc="T T T"
Si      -2.26955538       0.12945663      -0.42636976       0.00000000
Si       1.32172173      -1.73960910      -0.80908485       0.00000000
Si       0.92548377       2.14452963      -0.20497821       0.00000000
Si       0.00188964      -0.70462395       2.29070520       0.00000000
Si      -2.62324386       1.88678925       1.14900191       0.00000000
Si      -0.74917710       3.25399266       0.87371021       0.00000000
Si      -2.16419166       0.59720769      -2.69219796       0.00000000
Si      -1.61712459       0.83696391       3.01981359       0.00000000
Si      -0.51575769      -3.04252891       1.87567743       0.00000000
Si       3.47282342      -0.65414124      -0.89841587       0.00000000
