10
Lattice="16.28999089631971 0.0 0.0 0.0 16.28999089631971 0.0 0.0 0.0 34.26581377546328" Properties=species:S:1:pos:R:3:initial_magmoms:R:1 pbc="T T T"
Si       1.35360126       1.35570267      -1.35784873       0.00000000
Si      -1.35602847       1.35524655       1.35631020       0.00000000
Si       1.35728738      -1.35736425       1.35552208       0.00000000
Si      -1.35746199      -1.36091547      -1.35696468       0.00000000
Si       2.59356252      -0.02754639      -2.81018550       0.00000000
Si       2.71738444       2.70840798      -0.00328952       0.00000000
Si       0.00061902       2.71316466       2.71320292       0.00000000
Si      -2.71461447       2.71228500      -0.00753848       0.00000000
Si      -2.71458189      -0.00141723       2.71327145       0.00000000
Si       2.71509081      -0.00117288       2.71351131       0.00000000
