10
Lattice="16.28999089631971 0.0 0.0 0.0 16.28999089631971 0.0 0.0 0.0 34.26581377546328" Properties=species:S:1:pos:R:3:initial_magmoms:R:1 pbc="T T T"
Si      -1.34965908      -1.35040842      -1.39544178       0.00000000
Si       1.36739889       1.36331010      -1.39636696       0.00000000
Si       1.42411417      -1.42311069       1.43710903       0.00000000
Si      -1.54636083       1.38724011       1.50111761       0.00000000
Si      -2.70575271      -2.69702127       0.00256994       0.00000000
Si      -2.69962767       2.72342736      -0.04564209       0.00000000
Si       2.70834186       2.73398328      -0.02312944       0.00000000
Si       2.73758567      -2.71251306      -0.03560220       0.00000000
Si      -2.70255987       0.00588069      -2.75730304       0.00000000
Si       0.01101204      -2.70987408      -2.75606947       0.00000000
