10
Lattice="16.28999089631971 0.0 0.0 0.0 16.28999089631971 0.0 0.0 0.0 34.26581377546328" Properties=species:S:1:pos:R:3:initial_magmoms:R:1 pbc="T T T"
Si       0.63017865       1.25042040      -1.80481569       0.00000000
Si      -2.35230858      -0.09329283      -0.24887274       0.00000000
Si       0.66735243       1.55738916       1.68838039       0.00000000
Si       1.48228658      -1.88846712       0.04139313       0.00000000
Si       1.62106744      -2.07780579       2.38599848       0.00000000
Si       2.85136480       0.61581087      -2.06434510       0.00000000
Si      -0.58956768       0.71488665       3.45827919       0.00000000
Si      -0.57510216      -1.62453654       3.32854874       0.00000000
Si      -1.04932035       1.28262573      -3.39978741       0.00000000
Si      -2.82686886       0.04193046      -2.61376347       0.00000000
