10
Lattice="16.28999089631971 0.0 0.0 0.0 16.28999089631971 0.0 0.0 0.0 34.26581377546328" Properties=species:S:1:pos:R:3:initial_magmoms:R:1 pbc="T T T"
Si       1.02127371      -1.81793142       1.00165883       0.00000000
Si      -0.93274911      -0.62416764      -2.08325984       0.00000000
Si       1.39413308       1.86346197       0.43856840       0.00000000
Si      -1.83511737       0.94433130       1.18415865       0.00000000
Si      -0.55338759      -3.47706792       0.06681837       0.00000000
Si      -2.94774066       1.83557349      -0.76844557       0.00000000
Si       0.01653435       3.64276980      -0.19274531       0.00000000
Si       3.13863407      -2.04731091      -0.10423666       0.00000000
Si      -0.91828359      -2.96359083      -2.21299029       0.00000000
Si       0.32417100       0.21833487      -3.85315865       0.00000000
