10
Lattice="16.28999089631971 0.0 0.0 0.0 16.28999089631971 0.0 0.0 0.0 34.26581377546328" Properties=species:S:1:pos:R:3:initial_magmoms:R:1 pbc="T T T"
Si       1.35977517      -1.35565380      -1.35641300       0.00000000
Si       1.35685926       1.35765747       1.35864028       0.00000000
Si      -1.35827649      -1.35684297       1.35829762       0.00000000
Si      -1.36089918       1.35705474      -1.35840041       0.00000000
Si      -2.70014895       0.01093059      -2.72320169       0.00000000
Si       2.71301750       2.71437297       0.00006853       0.00000000
Si       2.71381682      -2.71443528       0.00054825       0.00000000
Si      -2.71595025      -2.71381626       0.00058252       0.00000000
Si       2.71443457       0.00024435       2.71536166       0.00000000
Si      -0.00105885      -2.71435383       2.71556726       0.00000000
