10
Lattice="16.28999089631971 0.0 0.0 0.0 16.28999089631971 0.0 0.0 0.0 34.26581377546328" Properties=species:S:1:pos:R:3:initial_magmoms:R:1 pbc="T T T"
Si      -1.25838621       1.37803626       1.39054177       0.00000000
Si      -1.36140417      -1.33721352      -1.35685845       0.00000000
Si       1.34917046       1.38037052      -1.35456264       0.00000000
Si       1.24348086      -1.34628705       1.55347580       0.00000000
Si       0.76435938       2.16861995       2.40624959       0.00000000
Si       2.44212905       0.40226526       2.79845631       0.00000000
Si       2.69128623      -2.67931404       0.02097069       0.00000000
Si      -0.00689067      -2.69237862      -2.71313439       0.00000000
Si      -2.71668330      -2.68986996      -0.00154196       0.00000000
Si       2.70942189       0.02259423      -2.71238054       0.00000000
