10
Lattice="16.28999089631971 0.0 0.0 0.0 16.28999089631971 0.0 0.0 0.0 34.26581377546328" Properties=species:S:1:pos:R:3:initial_magmoms:R:1 pbc="T T T"
Si      -1.21772867      -1.22565960      -1.54604012       0.00000000
Si      -0.80274025       2.17017009      -0.22612023       0.00000000
Si      -0.95947921      -1.39984857       1.66912299       0.00000000
Si       2.40436002       0.18226881      -0.02895463       0.00000000
Si       1.20753372      -2.07715419       2.17265940       0.00000000
Si       1.81257690      -3.05022105      -0.00438603       0.00000000
Si       2.66920284      -0.21737376       2.34772354       0.00000000
Si       0.14042632      -3.12015402      -1.76301137       0.00000000
Si      -0.94152111       2.35950876      -2.57072558       0.00000000
Si      -1.45372190       0.19025091      -3.38697199       0.00000000
