10
Lattice="16.28999089631971 0.0 0.0 0.0 16.28999089631971 0.0 0.0 0.0 34.26581377546328" Properties=species:S:1:pos:R:3:initial_magmoms:R:1 pbc="T T T"
Si       1.33698546       1.35555606       1.37413186       0.00000000
Si      -1.37662555      -1.36493910       1.37094514       0.00000000
Si      -1.52712886       1.14326478      -1.41880765       0.00000000
Si       1.45973061      -1.34008056      -1.40850734       0.00000000
Si      -0.38794635      -2.29153059      -2.62277299       0.00000000
Si      -2.19713167      -0.77353065      -2.88474937       0.00000000
Si       2.68442910       2.70329292      -0.02133048       0.00000000
Si       2.69198766      -0.00309510       2.72999660       0.00000000
Si       2.69057043      -2.73184929       0.01406955       0.00000000
Si      -2.74605482       2.69622306      -0.00669897       0.00000000
