10
Lattice="16.28999089631971 0.0 0.0 0.0 16.28999089631971 0.0 0.0 0.0 34.26581377546328" Properties=species:S:1:pos:R:3:initial_magmoms:R:1 pbc="T T T"
Si      -1.35404165       1.35878148      -1.35696125       0.00000000
Si      -1.35643628      -1.35860229       1.35747524       0.00000000
Si       1.35836945       1.35702216       1.35757803       0.00000000
Si       1.36032914      -1.36335897      -1.35901720       0.00000000
Si      -2.71381682       2.71443528      -0.00054825       0.00000000
Si       0.00061775       2.71467963       2.71481341       0.00000000
Si      -2.71308377      -2.71652040       0.00058252       0.00000000
Si      -0.00345404      -2.71606428      -2.71357641       0.00000000
Si      -2.71487567       0.00008145       2.71501901       0.00000000
Si       0.00062023      -2.71565703       2.71453928       0.00000000
