10
Lattice="16.28999089631971 0.0 0.0 0.0 16.28999089631971 0.0 0.0 0.0 34.26581377546328" Properties=species:S:1:pos:R:3:initial_magmoms:R:1 pbc="T T T"
Si      -0.75466194      -0.94400550       2.00372885       0.00000000
Si       1.40022324      -1.74623913      -0.70913141       0.00000000
Si       1.47134538       1.76265945       0.58488350       0.00000000
Si      -2.04519973       0.50621175      -1.10469619       0.00000000
Si      -0.94206862       0.09135432      -3.11887611       0.00000000
Si      -2.30155613       2.56158621       0.17043825       0.00000000
Si      -3.23433782      -1.56835233      -0.70015376       0.00000000
Si       3.24733005       0.61136370       1.60525148       0.00000000
Si       3.58239906      -1.01941191      -0.09683524       0.00000000
Si      -2.97584810      -0.30939597       2.26325826       0.00000000
