10
Lattice="16.28999089631971 0.0 0.0 0.0 16.28999089631971 0.0 0.0 0.0 34.26581377546328" Properties=species:S:1:pos:R:3:initial_magmoms:R:1 pbc="T T T"
Si      -1.10313111       0.41485743       2.01417993       0.00000000
Si      -1.57676353      -0.54859833      -1.64030542       0.00000000
Si       0.75549925       1.40462154      -1.71767767       0.00000000
Si       2.06809858      -1.41296202      -0.24750211       0.00000000
Si      -2.15445580      -2.32283997      -0.17341938       0.00000000
Si       0.94206862      -0.09135432       3.11887611       0.00000000
Si       0.16082628      -1.90526211      -2.79170594       0.00000000
Si      -0.22094290       3.44546532      -0.39409134       0.00000000
Si      -2.29226920      -1.65970665       2.41872235       0.00000000
Si       2.34229186      -1.83759345       2.40974470       0.00000000
