10
Lattice="16.28999089631971 0.0 0.0 0.0 16.28999089631971 0.0 0.0 0.0 34.26581377546328" Properties=species:S:1:pos:R:3:initial_magmoms:R:1 pbc="T T T"
Si      -1.35640477      -1.35785458       1.35836615       0.00000000
Si       1.35832536       1.35798327       1.35805776       0.00000000
Si      -1.35481649       1.35676152      -1.36302630       0.00000000
Si       1.35992178      -1.35969698      -1.35774936       0.00000000
Si       2.71555929      -2.71404230       0.00037692       0.00000000
Si      -2.71400227       0.00052128       2.71573859       0.00000000
Si       0.00081450      -2.71456039       2.71536166       0.00000000
Si       0.00066789       2.71505430       2.71525887       0.00000000
Si       2.71492398       2.71562445       0.00044546       0.00000000
Si       2.71546155       0.00066789       2.71529313       0.00000000
