10
Lattice="16.28999089631971 0.0 0.0 0.0 16.28999089631971 0.0 0.0 0.0 34.26581377546328" Properties=species:S:1:pos:R:3:initial_magmoms:R:1 pbc="T T T"
Si      -1.02127371       1.81793142      -1.00165883       0.00000000
Si       2.11736035      -0.22937949      -1.10589549       0.00000000
Si      -1.57466130      -1.65913650      -0.93484045       0.00000000
Si       0.51968439       0.69792876       2.43266854       0.00000000
Si      -3.39925533      -1.17933084       0.57121143       0.00000000
Si       3.32557336      -1.39453803       0.57467228       0.00000000
Si       2.32886971      -0.82007118       2.69464492       0.00000000
Si       0.37285937       3.68139339      -0.56309043       0.00000000
Si       3.42525187       1.62803889      -0.51230847       0.00000000
Si      -1.95402282       1.19376378      -3.08491867       0.00000000
