10
Lattice="16.28999089631971 0.0 0.0 0.0 16.28999089631971 0.0 0.0 0.0 34.26581377546328" Properties=species:S:1:pos:R:3:initial_magmoms:R:1 pbc="T T T"
Si       1.35725022      -1.35707103      -1.35586474       0.00000000
Si       1.35597960       1.35812988       1.35740671       0.00000000
Si      -1.35832047      -1.35718506       1.35754377       0.00000000
Si      -1.35710850       1.35848826      -1.36021650       0.00000000
Si       2.71225242      -2.71572219       0.00000000       0.00000000
Si       2.71406061       0.00034209       2.71508754       0.00000000
Si      -0.00112401      -2.71480995       2.71477915       0.00000000
Si       2.71386513       2.71574769      -0.00027413       0.00000000
Si      -0.00087966       2.71522960       2.71471061       0.00000000
Si      -2.71607217       0.00047241       2.71477915       0.00000000
