10
Lattice="10.86 0.0 0.0 0.0 10.86 0.0 0.0 0.0 10.86" Properties=species:S:1:pos:R:3:initial_magmoms:R:1 pbc="T T T"
Si      -1.36433094      -1.21236696       1.46777244       0.00000000
Si      -1.36433094       1.50263304      -1.24722756       0.00000000
Si       1.35066906       1.50263304       1.46777244       0.00000000
Si       0.99066006      -2.25868452      -0.45051624       0.00000000
Si       2.72706546      -0.19720674      -2.55826848       0.00000000
Si      -2.72183094      -2.56986696       0.11027244       0.00000000
Si      -2.72183094       0.14513304      -2.60472756       0.00000000
Si       0.00425712      -2.63653650      -2.69911182       0.00000000
Si      -0.37600578      -2.43523554       2.97592236       0.00000000
Si      -0.00683094       2.86013304      -2.60472756       0.00000000
