10
Lattice="16.28999089631971 0.0 0.0 0.0 16.28999089631971 0.0 0.0 0.0 34.64500226677339" Properties=species:S:1:pos:R:3:initial_magmoms:R:1 pbc="T T T"
Si      -1.35658941      -1.35471383      -1.35805020       0.00000000
Si       1.35727466      -1.35739067       1.35683763       0.00000000
Si      -1.35767622       1.35734959       1.35683763       0.00000000
Si       1.35779594       1.35831070      -1.35787698       0.00000000
Si      -2.71230033       0.00156547       2.71422957       0.00000000
Si       0.00019059      -2.71326796       2.71443744       0.00000000
Si       2.71517647       2.71429030      -0.00041574       0.00000000
Si      -0.00285401       2.71347580      -2.71672402       0.00000000
Si      -2.71541172      -2.71481551       0.00024252       0.00000000
Si      -2.71542801       2.71507222      -0.00017323       0.00000000
