10
Lattice="16.28999089631971 0.0 0.0 0.0 16.28999089631971 0.0 0.0 0.0 34.64500226677339" Properties=species:S:1:pos:R:3:initial_magmoms:R:1 pbc="T T T"
Si       0.43772859       0.10213830      -2.23550467       0.00000000
Si      -2.34008782      -0.10865430       0.33882831       0.00000000
Si       0.66622842       2.13105033       0.91112942       0.00000000
Si       0.65213757      -2.32738488       0.06738457       0.00000000
Si      -2.04460514       0.07827345       2.77603629       0.00000000
Si      -1.43984866       2.55609389       2.08944125       0.00000000
Si      -2.81191464      -2.33236962      -0.32133258       0.00000000
Si      -0.98104896      -3.24175887      -1.42824102       0.00000000
Si      -0.40638663      -1.85655501      -3.26238311       0.00000000
Si       2.46941739       1.19260719      -2.62605799       0.00000000
