10
Lattice="16.28999089631971 0.0 0.0 0.0 16.28999089631971 0.0 0.0 0.0 34.64500226677339" Properties=species:S:1:pos:R:3:initial_magmoms:R:1 pbc="T T T"
Si      -1.49363010      -1.39414707       1.08955129       0.00000000
Si       2.04310809      -0.24301422       1.15555005       0.00000000
Si      -0.37307358      -0.05419683      -2.36868013       0.00000000
Si      -0.30043647       2.34582516       0.50560945       0.00000000
Si       2.94014952       1.83384675       0.33020170       0.00000000
Si       1.33771851       3.06861246      -1.00103325       0.00000000
Si       0.45553356       2.05537446      -2.95296842       0.00000000
Si      -3.08309427      -0.05662404       2.14816457       0.00000000
Si      -2.67718005      -0.02880072      -2.67861449       0.00000000
Si       2.85224868      -2.48689656       0.86137917       0.00000000
