10
Lattice="16.28999089631971 0.0 0.0 0.0 16.28999089631971 0.0 0.0 0.0 34.64500226677339" Properties=species:S:1:pos:R:3:initial_magmoms:R:1 pbc="T T T"
Si      -1.97001486       0.65013390      -1.09738106       0.00000000
Si      -0.03909600      -2.33471538      -0.32067432       0.00000000
Si       0.41532984       0.56716893       2.30735844       0.00000000
Si       1.50537519       0.92315430      -1.64342125       0.00000000
Si       2.05801344      -2.89836567       0.54662915       0.00000000
Si       2.19093984       2.18902644       2.13874112       0.00000000
Si       0.28038348      -2.58541848      -2.72632069       0.00000000
Si       1.17742491      -0.50855751      -3.55166904       0.00000000
Si      -2.34328392       2.99228471      -0.81699890       0.00000000
Si       3.75251553       0.31649841      -1.13926689       0.00000000
