10
Lattice="16.28999089631971 0.0 0.0 0.0 16.28999089631971 0.0 0.0 0.0 34.64500226677339" Properties=species:S:1:pos:R:3:initial_magmoms:R:1 pbc="T T T"
Si      -0.23467374      -2.04954264      -1.27462499       0.00000000
Si      -1.06813530       1.06355685       1.90135343       0.00000000
Si      -0.42319791       1.07621907      -2.13984976       0.00000000
Si       2.53840554      -0.48931902       0.27553186       0.00000000
Si       2.09254824      -1.64999781      -1.69431478       0.00000000
Si       1.47760074       0.06346584      -3.24429841       0.00000000
Si       0.57775743       3.18890501      -1.68537637       0.00000000
Si      -2.90980125       2.20906476       0.71684014       0.00000000
Si       2.58903486      -2.14268886       2.04249725       0.00000000
Si       0.54252216       2.27485682       3.30530625       0.00000000
