10
Lattice="16.28999089631971 0.0 0.0 0.0 16.28999089631971 0.0 0.0 0.0 34.64500226677339" Properties=species:S:1:pos:R:3:initial_magmoms:R:1 pbc="T T T"
Si       1.34889345       1.34421987       1.39074125       0.00000000
Si      -1.36459701      -1.37457855       1.39375536       0.00000000
Si       1.58493555      -1.19452518      -1.38533316       0.00000000
Si      -1.32023934       1.42517465      -1.51242495       0.00000000
Si      -2.69772174      -2.70881100       0.01083350       0.00000000
Si      -2.71829601       2.69330228       0.02032623       0.00000000
Si       2.71914309      -2.71431702       0.02905332       0.00000000
Si       2.73396699       2.70131696       0.01025839       0.00000000
Si      -0.00413766       2.70496592       2.75166698       0.00000000
Si       2.71244790      -0.01175715       2.75170163       0.00000000
