10
Lattice="16.28999089631971 0.0 0.0 0.0 16.28999089631971 0.0 0.0 0.0 34.64500226677339" Properties=species:S:1:pos:R:3:initial_magmoms:R:1 pbc="T T T"
Si       1.34956134      -1.35676382       1.35836201       0.00000000
Si       1.35534429       1.35777639      -1.35728801       0.00000000
Si      -1.35935163      -1.35738711      -1.35728801       0.00000000
Si      -1.36000323       1.35806961       1.36404379       0.00000000
Si       0.01282023      -2.69438459       2.73061667       0.00000000
Si       2.71344159       0.00006842      -2.71454138       0.00000000
Si       2.71578735      -2.71262939       0.00027716       0.00000000
Si      -2.71709055      -2.71174973      -0.00017323       0.00000000
Si      -0.00234576       2.71564563      -2.71440280       0.00000000
Si      -0.00154755      -2.71541498      -2.71467996       0.00000000
