10
Lattice="16.28999089631971 0.0 0.0 0.0 16.28999089631971 0.0 0.0 0.0 34.64500226677339" Properties=species:S:1:pos:R:3:initial_magmoms:R:1 pbc="T T T"
Si      -1.41555213       1.84813145      -0.30896430       0.00000000
Si      -1.77561000      -1.62185751       0.16861732       0.00000000
Si       1.91808234      -0.43621036      -1.39622902       0.00000000
Si       0.97412571       0.93005963       2.02174488       0.00000000
Si      -2.67545331       1.50358166       1.72753936       0.00000000
Si      -2.19093984      -2.18902644      -2.13874112       0.00000000
Si       2.52555273       1.79162144      -2.18201275       0.00000000
Si       1.55905074      -0.93761235       3.36129464       0.00000000
Si      -0.11052765       3.84124553      -0.18798389       0.00000000
Si      -0.82704330       2.20025609       3.06029870       0.00000000
