10
Lattice="16.28999089631971 0.0 0.0 0.0 16.28999089631971 0.0 0.0 0.0 34.64500226677339" Properties=species:S:1:pos:R:3:initial_magmoms:R:1 pbc="T T T"
Si      -0.23143203       1.54712646       1.79402315       0.00000000
Si       2.19602232      -0.03759732      -0.98395326       0.00000000
Si      -1.47354453       0.71180784      -1.77448336       0.00000000
Si      -0.60747039      -2.22783180       0.78578374       0.00000000
Si       1.68621048      -1.13583002      -3.08008100       0.00000000
Si       0.09094707       0.60023763      -3.65792532       0.00000000
Si      -2.52555273      -1.79162144       2.18201275       0.00000000
Si       3.65045868      -1.21720020       0.45516629       0.00000000
Si      -2.63608038       2.04962409       1.99402886       0.00000000
Si       1.30417740       3.34581939       1.54648448       0.00000000
