10
Lattice="16.28999089631971 0.0 0.0 0.0 16.28999089631971 0.0 0.0 0.0 34.64500226677339" Properties=species:S:1:pos:R:3:initial_magmoms:R:1 pbc="T T T"
Si       1.16861202       1.07685045      -1.72026390       0.00000000
Si      -0.77986746      -2.15161578      -0.60715400       0.00000000
Si      -1.43014797       1.84989240       0.42284249       0.00000000
Si       1.08771588       0.06426405       2.15932026       0.00000000
Si       1.88654490       2.76213240      -0.19016652       0.00000000
Si       2.81188206       1.60401114       1.57437372       0.00000000
Si      -2.23542783       1.22925969       2.54419181       0.00000000
Si      -0.47122083       2.06058726      -3.08922729       0.00000000
Si      -3.13199685      -2.07956511      -0.32005071       0.00000000
Si      -0.06771753       3.86582877       0.48658933       0.00000000
