10
Lattice="16.28999089631971 0.0 0.0 0.0 16.28999089631971 0.0 0.0 0.0 34.64500226677339" Properties=species:S:1:pos:R:3:initial_magmoms:R:1 pbc="T T T"
Si       1.10830644      -1.34666172       1.57517055       0.00000000
Si      -0.41764302       2.32847631       0.21712035       0.00000000
Si      -2.14163001      -1.03161312      -0.08858732       0.00000000
Si       1.18315899      -0.51849441      -2.00920338       0.00000000
Si      -1.36238157      -3.26705724      -0.55404319       0.00000000
Si      -0.19671804      -3.33977580       1.45419014       0.00000000
Si      -1.26245871       2.80761408      -1.97885435       0.00000000
Si       0.25013295      -0.74951919       3.68501773       0.00000000
Si       2.77650018       1.21270905      -2.31622757       0.00000000
Si      -2.02268043       0.94467339      -3.16911871       0.00000000
