10
Lattice="16.28999089631971 0.0 0.0 0.0 16.28999089631971 0.0 0.0 0.0 34.64500226677339" Properties=species:S:1:pos:R:3:initial_magmoms:R:1 pbc="T T T"
Si      -1.77809097      -0.29773233      -1.50795921       0.00000000
Si       0.23294700      -1.80370862       1.54478687       0.00000000
Si       1.66286691      -0.40000095      -1.71201839       0.00000000
Si      -0.32742900       1.91630673       1.53162176       0.00000000
Si      -1.87313008      -1.37866505       2.72309870       0.00000000
Si      -1.33617096      -2.30035067      -2.68828045       0.00000000
Si       3.61587501       0.71759079      -1.07347600       0.00000000
Si      -1.92998381       1.57053519      -2.98775202       0.00000000
Si       2.03613597      -2.74215176      -1.99240055       0.00000000
Si      -3.53878163       0.13001049       1.77299363       0.00000000
