10
Lattice="16.28999089631971 0.0 0.0 0.0 16.28999089631971 0.0 0.0 0.0 34.64500226677339" Properties=species:S:1:pos:R:3:initial_magmoms:R:1 pbc="T T T"
Si      -1.10830644       1.34666172      -1.57517055       0.00000000
Si      -0.85817349       0.59714253       2.10984717       0.00000000
Si      -1.30502448      -1.99311408      -0.12098042       0.00000000
Si       2.40464835      -0.50249763      -0.20000571       0.00000000
Si       0.57937014       2.37131901       2.45827215       0.00000000
Si      -3.24993645       0.31504860      -1.66375787       0.00000000
Si       0.07485255       0.82816731      -3.58437394       0.00000000
Si      -0.71651565      -1.64098944       3.24828258       0.00000000
Si       2.92271922      -1.40268303       1.93142531       0.00000000
Si      -2.47068801      -1.92039552      -2.12921374       0.00000000
