10
Lattice="16.28999089631971 0.0 0.0 0.0 16.28999089631971 0.0 0.0 0.0 34.64500226677339" Properties=species:S:1:pos:R:3:initial_magmoms:R:1 pbc="T T T"
Si       1.28326104      -1.40613651       1.47017882       0.00000000
Si      -0.72145152      -1.80727776      -1.43687252       0.00000000
Si      -1.44928872       1.28635614       1.45358385       0.00000000
Si       0.99023652       1.85901480      -1.33175952       0.00000000
Si      -0.57894660      -0.44782839      -3.53975604       0.00000000
Si       2.74908411      -2.68920207       0.08640815       0.00000000
Si      -2.62255968       2.81722518      -0.04586308       0.00000000
Si       2.62428642      -0.06895557       2.84318874       0.00000000
Si      -0.08676054       2.64705984       2.84100610       0.00000000
Si       2.69866656       2.84529285      -0.02363483       0.00000000
