10
Lattice="16.28999089631971 0.0 0.0 0.0 16.28999089631971 0.0 0.0 0.0 34.64500226677339" Properties=species:S:1:pos:R:3:initial_magmoms:R:1 pbc="T T T"
Si      -0.23294700       1.80370862      -1.54478687       0.00000000
Si      -0.66622842      -2.13105033      -0.91112942       0.00000000
Si      -2.10607708       0.42504357       1.17831183       0.00000000
Si       2.28773502      -0.00865488       0.97200073       0.00000000
Si      -0.22849983      -2.02891203      -3.14663409       0.00000000
Si      -0.56037600       3.72001535      -0.01316511       0.00000000
Si      -3.00631624      -2.23970463      -0.57230111       0.00000000
Si       1.42991991       1.40370767      -3.25680526       0.00000000
Si      -0.16869924       3.07046789       2.31827162       0.00000000
Si      -2.71083356      -2.05277688       1.86490687       0.00000000
