10
Lattice="16.28999089631971 0.0 0.0 0.0 16.28999089631971 0.0 0.0 0.0 34.64500226677339" Properties=species:S:1:pos:R:3:initial_magmoms:R:1 pbc="T T T"
Si       0.05929560       1.12125699      -2.01467730       0.00000000
Si      -1.58267124      -1.68360408       0.39287455       0.00000000
Si      -0.73463013       1.63246977       1.59422532       0.00000000
Si       2.29221477      -0.73151874       0.30054556       0.00000000
Si       0.68730768       0.55012959       3.18238775       0.00000000
Si       2.68657938       0.82815102       2.00480347       0.00000000
Si       1.60389711       2.82341538      -1.24569640       0.00000000
Si       0.07351677      -0.65800197      -3.66104337       0.00000000
Si      -2.21470695      -1.42449534       2.62959179       0.00000000
Si      -3.52947285      -1.06937334      -0.70149240       0.00000000
