10
Lattice="16.28999089631971 0.0 0.0 0.0 16.28999089631971 0.0 0.0 0.0 34.64500226677339" Properties=species:S:1:pos:R:3:initial_magmoms:R:1 pbc="T T T"
Si       1.80977013       0.95917149      -1.18361252       0.00000000
Si       1.59643629      -0.94978845       1.47206697       0.00000000
Si      -0.93996558      -1.87600527      -1.28113825       0.00000000
Si      -1.78295679       1.72068012       0.22935004       0.00000000
Si      -0.34896438      -2.27372562       1.85371653       0.00000000
Si      -1.90772190      -0.64606140       2.40523063       0.00000000
Si       0.33057297       2.09743524      -2.67116581       0.00000000
Si      -2.40653799      -0.64677816      -2.66357855       0.00000000
Si      -0.97904529       3.50488670      -1.21385762       0.00000000
Si      -3.66637401       0.75772935      -1.17550558       0.00000000
