10
Lattice="16.28999089631971 0.0 0.0 0.0 16.28999089631971 0.0 0.0 0.0 34.64500226677339" Properties=species:S:1:pos:R:3:initial_magmoms:R:1 pbc="T T T"
Si      -0.44585730      -1.16067879      -1.96984664       0.00000000
Si       0.05062932      -1.65336984       1.76696539       0.00000000
Si      -2.53840554       0.48931902      -0.27553186       0.00000000
Si       2.27385594       1.23703002      -0.32715294       0.00000000
Si       0.90929151       0.14447601       3.15686619       0.00000000
Si      -2.77307928      -1.56022362      -1.55015685       0.00000000
Si       2.73440682       1.09230966       1.96561583       0.00000000
Si      -1.06080480       0.55278486      -3.51983026       0.00000000
Si       1.68893091       3.10470200      -1.66670270       0.00000000
Si       1.24103736      -2.47596597      -3.02541116       0.00000000
