10
Lattice="16.28999089631971 0.0 0.0 0.0 16.28999089631971 0.0 0.0 0.0 34.64500226677339" Properties=species:S:1:pos:R:3:initial_magmoms:R:1 pbc="T T T"
Si       1.45443636      -1.17960288       1.43911955       0.00000000
Si      -2.19602232       0.03759732       0.98395326       0.00000000
Si      -0.50981184      -1.09823270      -2.09612774       0.00000000
Si       1.40642973       1.98762435      -0.23271061       0.00000000
Si      -2.10507525       0.63783495      -2.67397206       0.00000000
Si       3.59323421      -0.84849723       0.41428517       0.00000000
Si       3.44134136       1.01977029      -1.06550764       0.00000000
Si      -3.66956685       0.74940516      -0.79053010       0.00000000
Si       1.43319420       2.97740475       1.95893346       0.00000000
Si       0.76721013      -3.42107009       1.78612409       0.00000000
