10
Lattice="16.28999089631971 0.0 0.0 0.0 16.28999089631971 0.0 0.0 0.0 34.64500226677339" Properties=species:S:1:pos:R:3:initial_magmoms:R:1 pbc="T T T"
Si       1.35607734       1.35503478      -1.35725337       0.00000000
Si      -1.35936792      -1.35993807      -1.35732266       0.00000000
Si       1.35505107      -1.36210464       1.36106432       0.00000000
Si      -1.36464588       1.35581670       1.35839665       0.00000000
Si      -0.00188964       2.71280628      -2.71467996       0.00000000
Si       2.71327869      -0.00239463      -2.71450673       0.00000000
Si      -2.71339272       2.71453302      -0.00076219       0.00000000
Si       2.71463076       2.71505430       0.00076219       0.00000000
Si      -2.71705797      -0.00206883      -2.71443744       0.00000000
Si      -0.00127062      -2.71764604      -2.71457602       0.00000000
