10
Lattice="16.28999089631971 0.0 0.0 0.0 16.28999089631971 0.0 0.0 0.0 34.64500226677339" Properties=species:S:1:pos:R:3:initial_magmoms:R:1 pbc="T T T"
Si       1.35574535       1.35689184       1.35656047       0.00000000
Si       1.35352013      -1.35979146      -1.35971316       0.00000000
Si      -1.35905387      -1.35819504       1.35683763       0.00000000
Si      -1.35631715       1.35769005      -1.36310838       0.00000000
Si      -0.00051054      -2.69693982      -2.70569997       0.00000000
Si      -0.00173449       2.71410948       2.71336345       0.00000000
Si       2.71350219      -0.00107514       2.71440280       0.00000000
Si       2.71338816       2.71554300      -0.00048503       0.00000000
Si       2.71417008      -2.71495656      -0.00086613       0.00000000
Si      -0.00130208      -2.71591767       2.71384848       0.00000000
