10
Lattice="16.28999089631971 0.0 0.0 0.0 16.28999089631971 0.0 0.0 0.0 34.64500226677339" Properties=species:S:1:pos:R:3:initial_magmoms:R:1 pbc="T T T"
Si       1.55734748       0.97984350      -1.47851094       0.00000000
Si       0.71967591      -1.72022400       1.47279451       0.00000000
Si      -1.50954543      -1.14437250      -1.52330696       0.00000000
Si      -0.40358475       1.89749178       1.53113673       0.00000000
Si      -3.15874503       0.56112534      -1.43350706       0.00000000
Si      -2.34264861       1.26465786       2.61393224       0.00000000
Si       2.49543645       2.77078239      -0.18302965       0.00000000
Si       0.74644038      -0.73044360       3.66443858       0.00000000
Si       0.29253582       2.05100874      -3.24388267       0.00000000
Si       2.75458754      -2.68807806       0.63999748       0.00000000
