10
Lattice="16.28999089631971 0.0 0.0 0.0 16.28999089631971 0.0 0.0 0.0 34.64500226677339" Properties=species:S:1:pos:R:3:initial_magmoms:R:1 pbc="T T T"
Si       1.93906386       0.63283392      -1.08279551       0.00000000
Si      -0.74948661       1.82477322       1.31405103       0.00000000
Si      -1.50801417      -0.32591403      -1.82184311       0.00000000
Si       0.76404987      -1.58908950       1.62201062       0.00000000
Si      -2.22029442       1.93090257      -1.80732684       0.00000000
Si      -2.85233013       2.19001131       0.42939040       0.00000000
Si       3.53532096       0.35087031       0.73741929       0.00000000
Si      -1.09292868       0.84740580       3.40733788       0.00000000
Si       2.34264861      -1.26465786      -2.61393224       0.00000000
Si       3.08908899      -1.99510146       1.05050635       0.00000000
