10
Lattice="16.28999089631971 0.0 0.0 0.0 16.28999089631971 0.0 0.0 0.0 34.64500226677339" Properties=species:S:1:pos:R:3:initial_magmoms:R:1 pbc="T T T"
Si      -1.35574535      -1.35689184      -1.35656047       0.00000000
Si      -1.35747984       1.35721764       1.35680298       0.00000000
Si       1.35764281       1.35865116      -1.35704550       0.00000000
Si       1.35775684      -1.35796698       1.35784233       0.00000000
Si      -0.00111749       2.71391400      -2.71426422       0.00000000
Si      -2.71427794       2.71450044      -0.00003465       0.00000000
Si      -2.71344715       0.00236205       2.71554609       0.00000000
Si       2.71471384       2.71513575      -0.00013858       0.00000000
Si      -2.71479922      -2.71508688       0.00027716       0.00000000
Si       0.00178701      -2.71409319       2.71596183       0.00000000
