10
Lattice="16.28999089631971 0.0 0.0 0.0 16.28999089631971 0.0 0.0 0.0 34.64500226677339" Properties=species:S:1:pos:R:3:initial_magmoms:R:1 pbc="T T T"
Si      -2.04278229       0.99294066       0.41885831       0.00000000
Si       0.72767430      -1.13200839       1.92685217       0.00000000
Si       0.83310318       2.17274391      -0.59478573       0.00000000
Si       0.09920610      -1.73035638      -1.76478276       0.00000000
Si       2.63910773       1.10398959      -1.73353295       0.00000000
Si       1.36721076      -0.36083979      -3.22815383       0.00000000
Si       1.54716134      -3.16778598      -0.55456286       0.00000000
Si      -0.71959446      -2.99146302       1.87966565       0.00000000
Si      -2.96767962       1.49245722      -1.70675235       0.00000000
Si      -3.57630660      -0.66130884       0.89564310       0.00000000
