10
Lattice="16.28999089631971 0.0 0.0 0.0 16.28999089631971 0.0 0.0 0.0 34.64500226677339" Properties=species:S:1:pos:R:3:initial_magmoms:R:1 pbc="T T T"
Si      -1.01638197      -0.80949897       1.94185346       0.00000000
Si       1.97512992       0.88759323       0.91871668       0.00000000
Si      -1.49763744       1.76951754      -0.41147892       0.00000000
Si      -0.04245174      -1.66843809      -1.77382511       0.00000000
Si      -2.27543607       0.56576799      -2.65609523       0.00000000
Si       3.15193581       1.21419144      -1.12128612       0.00000000
Si      -3.30509439      -0.90251487       1.35119049       0.00000000
Si      -0.16508286      -2.99877723       2.28726433       0.00000000
Si       3.01824378      -0.81099765       2.17231215       0.00000000
Si      -0.15964200       3.75987861      -0.63057404       0.00000000
