10
Lattice="16.28999089631971 0.0 0.0 0.0 16.28999089631971 0.0 0.0 0.0 34.64500226677339" Properties=species:S:1:pos:R:3:initial_magmoms:R:1 pbc="T T T"
Si      -1.44536283       1.20961395       1.39229334       0.00000000
Si      -1.66146597      -0.86620446      -1.44952488       0.00000000
Si       0.99939150       1.67566175      -1.34998973       0.00000000
Si       1.26728055      -1.51332471       1.35266637       0.00000000
Si       2.61521682       2.59762036       0.08595430       0.00000000
Si      -2.53171035       2.72081186      -0.04143891       0.00000000
Si      -0.24607674      -0.71469117      -3.66881567       0.00000000
Si      -0.09987399       2.55930465       2.74205299       0.00000000
Si       2.62082547      -0.15934878       2.73637121       0.00000000
Si      -3.46854825       0.96565491      -1.23116143       0.00000000
