10
Lattice="16.28999089631971 0.0 0.0 0.0 16.28999089631971 0.0 0.0 0.0 34.64500226677339" Properties=species:S:1:pos:R:3:initial_magmoms:R:1 pbc="T T T"
Si       1.20617676      -1.89951174       0.70630806       0.00000000
Si      -2.10540105       0.64617543       1.19702014       0.00000000
Si       1.71550872       1.52114391       1.28086109       0.00000000
Si      -0.18239913      -1.87633107      -2.16129503       0.00000000
Si      -2.57776218       0.66883482      -1.91462248       0.00000000
Si       0.02937087      -2.22610995       2.74631086       0.00000000
Si       0.88767468      -3.60233802      -0.95987497       0.00000000
Si       1.47257106      -0.78216435      -3.49419295       0.00000000
Si       3.82900427       0.75375459       0.44442634       0.00000000
Si      -3.44339649      -1.34418564       1.41611526       0.00000000
