10
Lattice="16.28999089631971 0.0 0.0 0.0 16.28999089631971 0.0 0.0 0.0 34.64500226677339" Properties=species:S:1:pos:R:3:initial_magmoms:R:1 pbc="T T T"
Si       1.31504283      -1.92498930      -0.42772744       0.00000000
Si       1.49485185       1.85634065       0.01361549       0.00000000
Si      -1.12296744       0.07312581      -2.11487070       0.00000000
Si      -1.15533567      -0.67197879       1.99770124       0.00000000
Si      -1.94851206      -2.10261546      -1.80722291       0.00000000
Si       2.29599405      -1.73941362       1.88534743       0.00000000
Si       0.91567719       0.20083941      -3.32405125       0.00000000
Si      -0.10041156       3.59240831      -0.56422882       0.00000000
Si      -3.40247601      -0.06532290       1.49354688       0.00000000
Si      -0.22955868      -3.62714769      -1.19670834       0.00000000
