10
Lattice="16.28999089631971 0.0 0.0 0.0 16.28999089631971 0.0 0.0 0.0 34.64500226677339" Properties=species:S:1:pos:R:3:initial_magmoms:R:1 pbc="T T T"
Si       0.87698844       1.91322792       1.11796020       0.00000000
Si      -1.56483369       0.79205238      -1.62332713       0.00000000
Si       1.85077206      -1.28264202      -0.96829371       0.00000000
Si      -1.64206458      -1.25274987       1.40010926       0.00000000
Si       3.47243897      -0.57519990       0.69854757       0.00000000
Si      -0.45655983       3.63651444       0.05255650       0.00000000
Si      -1.24971993      -0.72291762      -3.37380150       0.00000000
Si      -3.23045361      -1.95980103      -0.19037439       0.00000000
Si      -0.53840079       1.76171463       3.33725100       0.00000000
Si      -0.87596217       3.01221648      -2.18980788       0.00000000
