10
Lattice="16.28999089631971 0.0 0.0 0.0 16.28999089631971 0.0 0.0 0.0 34.64500226677339" Properties=species:S:1:pos:R:3:initial_magmoms:R:1 pbc="T T T"
Si      -1.37076440      -1.22657184       1.44376199       0.00000000
Si      -1.42019152       1.21251357      -1.43433854       0.00000000
Si       1.29512016      -1.48701636      -1.42248994       0.00000000
Si       0.98243361       1.66754214       1.50168846       0.00000000
Si       0.49849029      -1.83226662       3.14459003       0.00000000
Si      -2.59187258       2.66235615       0.04819123       0.00000000
Si      -2.64266138      -2.69140122      -0.05085889       0.00000000
Si       2.74154184       2.60410311       0.06631057       0.00000000
Si      -0.06740802       2.56658724      -2.79855556       0.00000000
Si       2.65088799      -0.14833674      -2.80226257       0.00000000
