10
Lattice="16.28999089631971 0.0 0.0 0.0 16.28999089631971 0.0 0.0 0.0 34.64500226677339" Properties=species:S:1:pos:R:3:initial_magmoms:R:1 pbc="T T T"
Si       1.04501979      -1.84756293      -1.29797574       0.00000000
Si      -0.28316907      -0.32162976       2.47978671       0.00000000
Si      -1.86925469       0.60569478      -1.70082805       0.00000000
Si       2.06711955       1.59410682       0.49182073       0.00000000
Si       2.03701563      -0.22305897       2.19739514       0.00000000
Si       2.53641816      -2.03359473       0.65617671       0.00000000
Si      -0.49849029       1.83226662      -3.14459003       0.00000000
Si      -1.54971657      -2.29581486       2.41988547       0.00000000
Si       0.48394332       3.49980876      -1.64290157       0.00000000
Si       0.27484488       3.77082549       0.95131765       0.00000000
