10
Lattice="16.28999089631971 0.0 0.0 0.0 16.28999089631971 0.0 0.0 0.0 34.64500226677339" Properties=species:S:1:pos:R:3:initial_magmoms:R:1 pbc="T T T"
Si       2.17458468      -0.81915894       0.18150527       0.00000000
Si      -1.79376425      -0.92620053       1.22310784       0.00000000
Si      -0.49100015       0.22905369      -2.31127333       0.00000000
Si       0.28380438       2.31313113       0.70492226       0.00000000
Si      -3.39002135      -0.64423692      -0.59710695       0.00000000
Si       3.41729991       1.06960140      -0.50127882       0.00000000
Si       2.60548776      -0.98344359       2.47670331       0.00000000
Si      -1.53140563       0.04489524       3.45795425       0.00000000
Si       1.47756816       0.69436125      -3.47506889       0.00000000
Si       0.85846671       3.69833499      -1.12921983       0.00000000
