10
Lattice="16.28999089631971 0.0 0.0 0.0 16.28999089631971 0.0 0.0 0.0 34.64500226677339" Properties=species:S:1:pos:R:3:initial_magmoms:R:1 pbc="T T T"
Si       0.56682684       2.29692258       0.39481467       0.00000000
Si       1.70603541      -0.92681955      -1.44400450       0.00000000
Si      -2.43085798       0.10151928      -0.46275355       0.00000000
Si       0.59235327      -1.22096808       2.07277700       0.00000000
Si      -1.45669415       3.09190716       1.61951618       0.00000000
Si      -3.41494505      -1.15212654       1.29950012       0.00000000
Si       1.01753856       3.28412916      -1.72015997       0.00000000
Si      -3.07836107       2.38446504      -0.04732510       0.00000000
Si       3.66663465       0.48861855      -1.24954200       0.00000000
Si      -2.69321660      -0.86957649      -2.69759996       0.00000000
