10
Lattice="16.28999089631971 0.0 0.0 0.0 16.28999089631971 0.0 0.0 0.0 34.64500226677339" Properties=species:S:1:pos:R:3:initial_magmoms:R:1 pbc="T T T"
Si       0.72697872       1.68164928       1.54899767       0.00000000
Si       1.69644712      -1.86491178       0.13088889       0.00000000
Si      -1.88659444      -1.08040167       1.36586755       0.00000000
Si       0.39423103       1.32203124      -2.44042997       0.00000000
Si       2.01073009       0.30910275       3.02673602       0.00000000
Si       2.52062338       2.70024669       0.41163071       0.00000000
Si       3.36468973      -0.91895148       1.54863736       0.00000000
Si      -0.68916541      -2.41235352       3.00432762       0.00000000
Si       0.70117210      -3.62146248       1.47764971       0.00000000
Si      -2.89548301      -2.89613394       0.17429910       0.00000000
