10
Lattice="16.28999089631971 0.0 0.0 0.0 16.28999089631971 0.0 0.0 0.0 34.40785480372833" Properties=species:S:1:pos:R:3:initial_magmoms:R:1 pbc="T T T"
Si      -0.08993709      -1.12347243       2.08432579       0.00000000
Si      -1.19135286      -1.08095553      -1.78143327       0.00000000
Si       2.33831547       0.02259423      -0.58761767       0.00000000
Si      -0.88484022       2.20685517       0.42404264       0.00000000
Si      -2.30264363      -1.67855418       2.35229431       0.00000000
Si       3.33917307       0.70234335       1.42840848       0.00000000
Si      -0.04336398      -3.12728904      -2.05903600       0.00000000
Si       0.98808624       3.61175364       0.47011478       0.00000000
Si      -0.96138693       0.30801132      -3.72152125       0.00000000
Si       2.65360842       1.64722851      -2.27016271       0.00000000
