10
Lattice="16.28999089631971 0.0 0.0 0.0 16.28999089631971 0.0 0.0 0.0 34.40785480372833" Properties=species:S:1:pos:R:3:initial_magmoms:R:1 pbc="T T T"
Si       1.93153788      -0.63640143       1.15331753       0.00000000
Si       0.46511208       2.32006971       0.17682206       0.00000000
Si       0.89168202      -0.55646640      -2.17794961       0.00000000
Si      -2.15118314      -0.47563542       1.05002509       0.00000000
Si      -2.13815114      -2.61923652      -0.00206447       0.00000000
Si       2.76460848       0.84843207      -2.13187747       0.00000000
Si       1.84678101       0.81969651       2.97776064       0.00000000
Si      -1.64143399       3.39640703      -0.01668782       0.00000000
Si      -2.52305126       0.39926790      -2.86142762       0.00000000
Si       1.90697256       2.95838522      -1.57268070       0.00000000
