10
Lattice="16.28999089631971 0.0 0.0 0.0 16.28999089631971 0.0 0.0 0.0 34.40785480372833" Properties=species:S:1:pos:R:3:initial_magmoms:R:1 pbc="T T T"
Si      -1.34284986       1.31267645      -1.35233611       0.00000000
Si       1.33193556       1.36648557       1.36246579       0.00000000
Si      -1.38388437      -1.34831527       1.36057336       0.00000000
Si       1.33942896      -1.32572104      -1.51381915       0.00000000
Si      -2.11598955      -0.65388886      -2.49217711       0.00000000
Si      -0.47465802      -2.35668256      -2.71866733       0.00000000
Si       2.69390988      -2.70004318      -0.02709620       0.00000000
Si       2.67564879       2.73406365      -0.01545946       0.00000000
Si       2.69197137       0.01030664       2.72051017       0.00000000
Si      -0.02410920      -2.70475099       2.71923708       0.00000000
