10
Lattice="16.28999089631971 0.0 0.0 0.0 16.28999089631971 0.0 0.0 0.0 34.40785480372833" Properties=species:S:1:pos:R:3:initial_magmoms:R:1 pbc="T T T"
Si       0.46271745      -0.43339545       2.30099217       0.00000000
Si      -1.45086885       1.93621311       0.22781453       0.00000000
Si       1.89828999       1.31453784      -0.98661138       0.00000000
Si      -1.58949675      -1.60068798      -1.16969568       0.00000000
Si      -3.04157106       0.16195518       0.83036522       0.00000000
Si       0.89287119       0.98645724      -3.20347630       0.00000000
Si      -1.34711784       0.75329847       3.12767575       0.00000000
Si      -1.06552890       2.93176017       2.32555939       0.00000000
Si      -0.45468648      -2.47524432       2.98023801       0.00000000
Si      -3.63812715      -0.41181120      -1.46040781       0.00000000
