10
Lattice="16.28999089631971 0.0 0.0 0.0 16.28999089631971 0.0 0.0 0.0 34.40785480372833" Properties=species:S:1:pos:R:3:initial_magmoms:R:1 pbc="T T T"
Si       0.91740393       2.04184887      -0.67924584       0.00000000
Si       0.19279215      -1.63725481      -1.74021264       0.00000000
Si       0.86229486      -0.97998930       2.02916996       0.00000000
Si      -2.20797918       0.96473778      -0.22420171       0.00000000
Si      -0.89243136       3.22854279       0.14743774       0.00000000
Si       1.21204116      -3.18876328       1.22787939       0.00000000
Si      -3.28784328      -0.81494960      -1.40559606       0.00000000
Si      -1.67931981      -1.27825579      -3.13772285       0.00000000
Si      -0.13864419      -3.74884606      -0.66947401       0.00000000
Si       0.45468648       2.47524432      -2.98023801       0.00000000
