10
Lattice="16.28999089631971 0.0 0.0 0.0 16.28999089631971 0.0 0.0 0.0 34.40785480372833" Properties=species:S:1:pos:R:3:initial_magmoms:R:1 pbc="T T T"
Si      -0.59912991      -2.26799154       0.73249344       0.00000000
Si      -1.82653254       1.60177941       0.43666383       0.00000000
Si       1.98588132       0.73880037       1.28075539       0.00000000
Si      -0.40216752       0.41402664      -2.50761145       0.00000000
Si       0.79109127      -3.14442612      -1.12685787       0.00000000
Si       0.59150619       1.94090463       2.81740760       0.00000000
Si      -2.12353182      -0.81845847       2.83723342       0.00000000
Si       0.31208382      -1.81174122      -3.17808329       0.00000000
Si      -0.70578054       3.38128272       1.51631858       0.00000000
Si      -3.57029233       0.43986258       1.57245158       0.00000000
