10
Lattice="16.28999089631971 0.0 0.0 0.0 16.28999089631971 0.0 0.0 0.0 34.40785480372833" Properties=species:S:1:pos:R:3:initial_magmoms:R:1 pbc="T T T"
Si      -1.19262348       1.49685552      -1.36220773       0.00000000
Si       1.87621704       0.75598632       1.21907098       0.00000000
Si      -1.37806884      -1.32224301       1.42778914       0.00000000
Si       1.50728112      -1.24377408      -1.38770397       0.00000000
Si       1.33678998      -0.72418824       3.36089232       0.00000000
Si      -2.53221534       0.11332953      -2.73883237       0.00000000
Si       0.18399555      -2.60221347      -2.74736552       0.00000000
Si       2.78044236      -2.59931385       0.02676933       0.00000000
Si      -2.65105089      -2.73447198      -0.00602138       0.00000000
Si      -2.64279186       0.21211209       2.80596213       0.00000000
