10
Lattice="16.28999089631971 0.0 0.0 0.0 16.28999089631971 0.0 0.0 0.0 34.40785480372833" Properties=species:S:1:pos:R:3:initial_magmoms:R:1 pbc="T T T"
Si      -1.27298205      -1.41222897      -1.43381052       0.00000000
Si       1.37806884       1.32224301      -1.42778914       0.00000000
Si      -1.26472302       1.53435510       1.37817299       0.00000000
Si       0.62169156      -2.11385556       1.34348985       0.00000000
Si      -1.89718227      -1.50589647       1.05449812       0.00000000
Si       0.95531076      -0.64334097       3.15860843       0.00000000
Si       2.71485882       0.59805477       1.93310318       0.00000000
Si      -2.77459425       0.14027319       2.49997290       0.00000000
Si      -2.52762156       0.07410321      -2.78356260       0.00000000
Si       2.82484890      -2.57437386       0.22640381       0.00000000
