10
Lattice="16.28999089631971 0.0 0.0 0.0 16.28999089631971 0.0 0.0 0.0 34.40785480372833" Properties=species:S:1:pos:R:3:initial_magmoms:R:1 pbc="T T T"
Si      -1.76397894      -0.36391860      -1.51872915       0.00000000
Si       0.73026441       2.23850664       0.14372169       0.00000000
Si       1.96592607      -1.14753276      -0.86009363       0.00000000
Si       0.04491153      -0.38195163       2.41312743       0.00000000
Si      -0.25410771       1.03016331      -2.64052907       0.00000000
Si       0.78696990      -2.59613730       2.34541273       0.00000000
Si      -0.88656696      -2.01008826      -2.96420394       0.00000000
Si       2.85928596       2.21951250       1.20799164       0.00000000
Si      -1.17569817      -3.44763189       1.36643990       0.00000000
Si       2.75006151      -2.54844018       1.07497080       0.00000000
