10
Lattice="16.28999089631971 0.0 0.0 0.0 16.28999089631971 0.0 0.0 0.0 34.40785480372833" Properties=species:S:1:pos:R:3:initial_magmoms:R:1 pbc="T T T"
Si      -2.27474896       0.76932783       0.26439010       0.00000000
Si      -0.59655609      -0.57376638      -2.29077303       0.00000000
Si       1.59070221       1.77425793      -0.60255069       0.00000000
Si       0.37890540      -1.67246172       1.92567108       0.00000000
Si       1.69445322       0.59134329       2.29731053       0.00000000
Si       1.45207431      -1.76264316      -2.00006090       0.00000000
Si       3.04157106      -0.16195518      -0.83036522       0.00000000
Si      -1.79750865       2.61961119      -1.11908170       0.00000000
Si      -0.70095870      -3.45214911       0.74427672       0.00000000
Si       1.97604216       2.76980499       1.49519417       0.00000000
