10
Lattice="16.28999089631971 0.0 0.0 0.0 16.28999089631971 0.0 0.0 0.0 34.40785480372833" Properties=species:S:1:pos:R:3:initial_magmoms:R:1 pbc="T T T"
Si      -1.26659637       0.50717286       1.88974926       0.00000000
Si       2.16777546       0.17532927       0.85981836       0.00000000
Si      -0.31848579       1.76759532      -1.52468171       0.00000000
Si      -0.58191138      -2.21055300      -0.58025439       0.00000000
Si       3.28834827      -1.54020321      -0.31755027       0.00000000
Si       1.88869518       2.54935242      -1.95096087       0.00000000
Si      -2.89118178      -2.24780823      -0.85465718       0.00000000
Si      -0.20681784       2.42259993       2.87285103       0.00000000
Si       2.24446878      -1.23846354       2.78951516       0.00000000
Si      -3.51192852       0.89950122       1.27684180       0.00000000
