10
Lattice="16.28999089631971 0.0 0.0 0.0 16.28999089631971 0.0 0.0 0.0 34.40785480372833" Properties=species:S:1:pos:R:3:initial_magmoms:R:1 pbc="T T T"
Si       1.35754344      -1.35713619      -1.35708096       0.00000000
Si      -1.35741312       1.35746199      -1.35694333       0.00000000
Si      -1.35894438      -1.35650088       1.35687451       0.00000000
Si       1.35747828       1.35796698       1.35766589       0.00000000
Si      -2.71295289      -0.00309510       2.71306087       0.00000000
Si       0.00058644      -2.71347417      -2.71440277       0.00000000
Si      -2.71376739       0.00004887      -2.71429955       0.00000000
Si       0.00179190       2.71372306      -2.71526297       0.00000000
Si      -2.71379997       2.71521198      -0.00041289       0.00000000
Si      -2.71474479      -2.71427238       0.00017204       0.00000000
