10
Lattice="16.28999089631971 0.0 0.0 0.0 16.28999089631971 0.0 0.0 0.0 34.40785480372833" Properties=species:S:1:pos:R:3:initial_magmoms:R:1 pbc="T T T"
Si       1.96183728       0.75162779      -1.32325802       0.00000000
Si      -1.74995325       1.74288243      -0.27519418       0.00000000
Si      -0.93923253      -1.86108363      -1.40033166       0.00000000
Si       0.57603069      -0.65430414       2.43325604       0.00000000
Si       0.43526880       2.05329327      -2.93127560       0.00000000
Si      -2.30040864      -0.67333086      -2.95253967       0.00000000
Si      -0.86288130       3.45451346      -1.56359702       0.00000000
Si      -2.41704504      -3.13373988       0.02828327       0.00000000
Si       3.75091911       1.09782287       0.68468229       0.00000000
Si      -3.54815748       0.77959755      -1.62491185       0.00000000
