10
Lattice="16.28999089631971 0.0 0.0 0.0 16.28999089631971 0.0 0.0 0.0 34.40785480372833" Properties=species:S:1:pos:R:3:initial_magmoms:R:1 pbc="T T T"
Si       1.43376435      -1.44800181      -1.20792283       0.00000000
Si       0.33143634       2.11159125      -1.07073863       0.00000000
Si       1.35068535       0.56008278       1.89735340       0.00000000
Si      -2.26431000      -0.77913441       0.44599486       0.00000000
Si       2.08826397       1.32616890      -2.79581180       0.00000000
Si       3.59588718       0.56739699       1.11288828       0.00000000
Si       0.13864419       3.74884606       0.66947401       0.00000000
Si      -1.54067562       2.47059027      -2.46824884       0.00000000
Si      -3.54403448       1.17452529       0.82255464       0.00000000
Si       3.56278590      -1.46699595      -0.14365287       0.00000000
