10
Lattice="16.28999089631971 0.0 0.0 0.0 16.28999089631971 0.0 0.0 0.0 34.40785480372833" Properties=species:S:1:pos:R:3:initial_magmoms:R:1 pbc="T T T"
Si      -1.87292646      -1.40489847      -0.04607214       0.00000000
Si      -0.85763592       2.10995315       0.55919677       0.00000000
Si       1.31577588       0.24424886      -1.93898693       0.00000000
Si       1.11853656      -1.02742659       1.86046816       0.00000000
Si      -2.29949640       1.47163764       2.30869953       0.00000000
Si      -2.76460848      -0.84843207       2.13187747       0.00000000
Si      -3.17267461      -0.34477785      -1.69008036       0.00000000
Si       1.09033857       3.30314678       1.13318892       0.00000000
Si      -0.83307060      -1.48483350       3.28519500       0.00000000
Si       1.66552218      -1.96452513      -2.74027750       0.00000000
