10
Lattice="16.28999089631971 0.0 0.0 0.0 16.28999089631971 0.0 0.0 0.0 34.40785480372833" Properties=species:S:1:pos:R:3:initial_magmoms:R:1 pbc="T T T"
Si       1.31510799      -1.44400262      -1.31241266       0.00000000
Si      -1.34371323      -1.36757808       1.37792525       0.00000000
Si       1.37233476       1.34892603       1.37627367       0.00000000
Si      -1.40810760       1.33563339      -1.54183748       0.00000000
Si      -2.70259245       2.70575271      -0.02027312       0.00000000
Si      -2.67564879      -2.73406365       0.01545946       0.00000000
Si       2.71365336       2.70780525       0.00268725       0.00000000
Si      -2.69856882      -0.01200573       2.73466213       0.00000000
Si       0.01586646       2.70454725       2.73466213       0.00000000
Si       0.01632258      -2.72375702       2.73596963       0.00000000
