10
Lattice="16.28999089631971 0.0 0.0 0.0 16.28999089631971 0.0 0.0 0.0 34.40785480372833" Properties=species:S:1:pos:R:3:initial_magmoms:R:1 pbc="T T T"
Si       0.65658474      -2.17293939      -0.75047014       0.00000000
Si      -2.25262518      -0.28598724       0.87100092       0.00000000
Si       0.11135844       1.65825684      -1.77678821       0.00000000
Si       2.02342977       0.36629694       1.32377414       0.00000000
Si       1.30917843       2.59206480       1.99424597       0.00000000
Si      -1.65191026      -1.92085164       2.52877229       0.00000000
Si       3.74912721      -0.05888835      -0.30406238       0.00000000
Si      -0.89744868      -2.71638194      -2.44743208       0.00000000
Si       2.89439091      -1.87942617      -1.56232393       0.00000000
Si      -0.98002269       3.40552224       1.45424880       0.00000000
