10
Lattice="16.28999089631971 0.0 0.0 0.0 16.28999089631971 0.0 0.0 0.0 34.40785480372833" Properties=species:S:1:pos:R:3:initial_magmoms:R:1 pbc="T T T"
Si      -1.35785295       1.35680410      -1.36024648       0.00000000
Si       1.35866745      -1.35862228      -1.36031530       0.00000000
Si       1.36378251       1.34990692       1.37724397       0.00000000
Si      -1.36529748      -1.36678357       1.38901147       0.00000000
Si      -2.71523349       2.70785761      -0.00003441       0.00000000
Si       2.71360449       2.71004047       0.00089460       0.00000000
Si       2.71142163      -2.71662184      -0.00144513       0.00000000
Si       0.00040725       2.71235365      -2.71736185       0.00000000
Si      -2.71614573      -2.71469962       0.00034408       0.00000000
Si      -2.71487511      -0.00193973      -2.71701777       0.00000000
