10
Lattice="16.28999089631971 0.0 0.0 0.0 16.28999089631971 0.0 0.0 0.0 34.40785480372833" Properties=species:S:1:pos:R:3:initial_magmoms:R:1 pbc="T T T"
Si       0.73510254      -0.95600146       1.93668160       0.00000000
Si       1.05254577      -1.07397526      -1.78477083       0.00000000
Si      -2.23788762      -0.72995490      -0.02398229       0.00000000
Si       0.61916661       2.28506346       0.01015032       0.00000000
Si       0.03046230       2.64052755      -2.25870489       0.00000000
Si       0.36487971      -3.37461101      -1.01434413       0.00000000
Si      -1.89341928      -2.68016831      -1.37542036       0.00000000
Si      -0.81594981       3.04043076       1.73109455       0.00000000
Si      -3.30362829       1.32079320      -0.56081394       0.00000000
Si       3.26977767      -1.04284345      -1.10831203       0.00000000
