10
Lattice="16.28999089631971 0.0 0.0 0.0 16.28999089631971 0.0 0.0 0.0 34.40785480372833" Properties=species:S:1:pos:R:3:initial_magmoms:R:1 pbc="T T T"
Si       1.23430959       1.15865117       1.61565067       0.00000000
Si      -1.04308128       1.74562060      -1.30423047       0.00000000
Si      -1.41701823      -1.45713091       1.42970363       0.00000000
Si       1.74172680      -1.05405115      -1.49801561       0.00000000
Si       2.88816813       2.21058607       0.30818483       0.00000000
Si      -2.69891091       0.76007886      -2.71921988       0.00000000
Si      -0.08079840       2.60265379       2.92806333       0.00000000
Si       2.85505056      -2.71028803      -0.12975209       0.00000000
Si      -2.95215525       2.63265997       0.00024086       0.00000000
Si       2.66331726      -0.14409450       2.93950394       0.00000000
