10
Lattice="16.28999089631971 0.0 0.0 0.0 16.28999089631971 0.0 0.0 0.0 34.40785480372833" Properties=species:S:1:pos:R:3:initial_magmoms:R:1 pbc="T T T"
Si       1.35648459       1.35492075      -1.38254279       0.00000000
Si      -1.35812988      -1.36723599      -1.38237075       0.00000000
Si       1.53684747      -1.20770802       1.36946779       0.00000000
Si      -1.36029645       1.38078927       1.40287784       0.00000000
Si      -2.68646535      -2.71528562      -0.00430098       0.00000000
Si       2.70306486       2.70743058      -0.00319993       0.00000000
Si      -2.70630657       2.71243161      -0.02191782       0.00000000
Si       2.72088612      -2.72518668      -0.00509237       0.00000000
Si      -0.00205254       2.71143792      -2.74230756       0.00000000
Si       2.71412577      -0.00373041      -2.74100006       0.00000000
