10
Lattice="16.28999089631971 0.0 0.0 0.0 16.28999089631971 0.0 0.0 0.0 34.40785480372833" Properties=species:S:1:pos:R:3:initial_magmoms:R:1 pbc="T T T"
Si       1.23546618      -0.91621476       1.76302506       0.00000000
Si      -1.45083627       1.94608485       0.06633838       0.00000000
Si      -1.34084619      -1.22634378      -1.64036099       0.00000000
Si       2.31427143       0.76514130      -0.62419324       0.00000000
Si       1.06893351       1.95271488      -2.22563892       0.00000000
Si      -0.00718389       0.07095924      -3.26778461       0.00000000
Si      -3.21038433       0.70468911       1.29184363       0.00000000
Si      -3.54400353      -0.76582548      -0.52327495       0.00000000
Si       1.22207580       0.68680269       3.54449274       0.00000000
Si      -0.81419049       3.53633094       1.64700171       0.00000000
