10
Lattice="16.28999089631971 0.0 0.0 0.0 16.28999089631971 0.0 0.0 0.0 34.40785480372833" Properties=species:S:1:pos:R:3:initial_magmoms:R:1 pbc="T T T"
Si       1.35979146       1.76070465      -0.66149138       0.00000000
Si      -1.43228196       1.29057525       1.31603237       0.00000000
Si      -1.23123078      -0.27525213      -1.98409565       0.00000000
Si       1.17270081      -1.94390199       0.72727923       0.00000000
Si       0.35714196      -1.65734460      -3.05091178       0.00000000
Si      -3.42549378       1.22186403      -0.01193953       0.00000000
Si      -3.38366106      -0.88019757      -1.00587979       0.00000000
Si       2.76744294       2.00772621       1.26992581       0.00000000
Si      -0.09225027       3.32941536      -1.62470540       0.00000000
Si       3.32654832      -1.63017288      -0.25860958       0.00000000
