10
Lattice="16.28999089631971 0.0 0.0 0.0 16.28999089631971 0.0 0.0 0.0 34.40785480372833" Properties=species:S:1:pos:R:3:initial_magmoms:R:1 pbc="T T T"
Si       0.52969216       1.08422982       2.07039060       0.00000000
Si      -0.60071493       1.63486440      -1.65777137       0.00000000
Si       0.36579847      -2.40120206      -0.58981978       0.00000000
Si      -2.13842155      -1.41770730       1.89105676       0.00000000
Si      -0.30089748      -0.75680734       3.35528525       0.00000000
Si       1.65191026       1.92085164      -2.52877229       0.00000000
Si      -3.20823472      -1.77218584      -0.43587895       0.00000000
Si       2.13613051      -2.29590350      -2.17526580       0.00000000
Si      -1.24752567       2.85237900       2.23155402       0.00000000
Si       2.30849500      -0.25208775      -3.27924243       0.00000000
