10
Lattice="16.28999089631971 0.0 0.0 0.0 16.28999089631971 0.0 0.0 0.0 34.40785480372833" Properties=species:S:1:pos:R:3:initial_magmoms:R:1 pbc="T T T"
Si       1.32328557       1.35843939       1.35966155       0.00000000
Si      -1.35614250       1.35307998      -1.35353695       0.00000000
Si       1.35573525      -1.35883035      -1.35284879       0.00000000
Si      -1.34851878      -1.35783666       1.36754095       0.00000000
Si      -0.18399555       2.60221347       2.74736552       0.00000000
Si       2.59644681       0.00289962       2.77413484       0.00000000
Si      -0.00073305       2.71296918      -2.71051468       0.00000000
Si       2.71427238      -0.00231318      -2.71041146       0.00000000
Si      -2.71538010      -0.00175932      -2.71037705       0.00000000
Si      -0.00029322      -2.71655298      -2.71058350       0.00000000
