10
Lattice="16.28999089631971 0.0 0.0 0.0 16.28999089631971 0.0 0.0 0.0 34.40785480372833" Properties=species:S:1:pos:R:3:initial_magmoms:R:1 pbc="T T T"
Si      -1.33136541      -1.38419388      -1.33962240       0.00000000
Si       1.35822762      -1.35394335       1.36554530       0.00000000
Si      -1.35700587       1.36159965       1.36564852       0.00000000
Si       1.38367260       1.37516922      -1.35944822       0.00000000
Si      -2.77812592      -0.12587283      -2.60440424       0.00000000
Si       2.71241532      -2.70676269       0.00041289       0.00000000
Si      -2.70873541      -2.71389771       0.00481710       0.00000000
Si       2.71526607       2.71464705       0.00832671       0.00000000
Si      -2.71210907       2.71805166       0.00478269       0.00000000
Si       0.00057015      -2.71135647       2.72128435       0.00000000
