10
Lattice="16.28999089631971 0.0 0.0 0.0 16.28999089631971 0.0 0.0 0.0 34.40785480372833" Properties=species:S:1:pos:R:3:initial_magmoms:R:1 pbc="T T T"
Si      -1.35979146      -1.76070465       0.66149138       0.00000000
Si      -1.45204173       1.56871071      -0.96321403       0.00000000
Si       1.15605243      -0.55096038      -2.00264149       0.00000000
Si       1.40765148       0.24702156       1.93141719       0.00000000
Si       3.03432201       0.64552383      -1.47881602       0.00000000
Si      -2.79207342      -0.47012940       1.97752374       0.00000000
Si       0.17760987       3.12030063      -1.59845220       0.00000000
Si      -2.45697183       0.04712697      -2.54150321       0.00000000
Si      -2.59102224      -2.03595678      -1.32260427       0.00000000
Si       2.31308226       2.72401380      -0.58782412       0.00000000
