10
Lattice="16.28999089631971 0.0 0.0 0.0 16.28999089631971 0.0 0.0 0.0 34.40785480372833" Properties=species:S:1:pos:R:3:initial_magmoms:R:1 pbc="T T T"
Si       1.37737000       1.32970383      -1.34443951       0.00000000
Si       1.34930233      -1.35544203       1.35993681       0.00000000
Si      -1.37211226      -1.35733167      -1.33783664       0.00000000
Si      -1.36313970       1.35814617       1.36096905       0.00000000
Si      -0.06939051       2.58802488      -2.60922134       0.00000000
Si       2.70707383      -2.70728397      -0.00440421       0.00000000
Si       2.70873541       2.71389771      -0.00481710       0.00000000
Si       2.70930556       0.00254124       2.71646725       0.00000000
Si      -0.00541968      -2.71292194       2.71725863       0.00000000
Si      -2.71887172      -2.71225731       0.00443862       0.00000000
