10
Lattice="16.28999089631971 0.0 0.0 0.0 16.28999089631971 0.0 0.0 0.0 34.40785480372833" Properties=species:S:1:pos:R:3:initial_magmoms:R:1 pbc="T T T"
Si       2.22127182      -0.32061978       0.57719209       0.00000000
Si      -0.05421312      -1.90373085      -1.43910933       0.00000000
Si      -1.10438055      -0.86710041       1.93884929       0.00000000
Si      -0.34209000       2.48197698      -0.08629495       0.00000000
Si      -1.12300002       0.87706989      -2.59765686       0.00000000
Si      -2.09166858      -1.24608726      -2.34097412       0.00000000
Si      -2.04902136       1.18859985       2.49205909       0.00000000
Si       0.02753010       2.54889630       2.48617535       0.00000000
Si       3.29431041       1.56999762      -0.02343176       0.00000000
Si      -3.59450253      -0.71068383      -0.62804692       0.00000000
