10
Lattice="16.28999089631971 0.0 0.0 0.0 16.28999089631971 0.0 0.0 0.0 34.40785480372833" Properties=species:S:1:pos:R:3:initial_magmoms:R:1 pbc="T T T"
Si      -0.96101226      -1.85271057       1.07586541       0.00000000
Si       2.25829899      -0.69444270       0.36107623       0.00000000
Si      -0.34446834       1.95021341       1.35143807       0.00000000
Si      -0.16850376      -0.54809334      -2.47674759       0.00000000
Si       2.94596505       1.60619304      -0.40935048       0.00000000
Si       1.47738897      -2.29934979      -2.15028568       0.00000000
Si       1.89341928       2.68016831       1.37542036       0.00000000
Si       0.55136763      -1.98781983       2.93943027       0.00000000
Si      -2.46863547      -1.09393866      -2.83283468       0.00000000
Si      -1.49262012       1.34483791       3.39275401       0.00000000
