10
Lattice="16.28999089631971 0.0 0.0 0.0 16.28999089631971 0.0 0.0 0.0 34.40785480372833" Properties=species:S:1:pos:R:3:initial_magmoms:R:1 pbc="T T T"
Si       1.36054080      -1.35131089      -1.36072819       0.00000000
Si      -1.35658233       1.36132272      -1.35955833       0.00000000
Si      -1.34982198      -1.36013355       1.37634937       0.00000000
Si       1.37604888       1.37722176       1.36482273       0.00000000
Si      -2.53386063       0.15734511       2.75090953       0.00000000
Si       2.71209705      -2.70965120       0.00165158       0.00000000
Si      -2.71360449      -2.71004047      -0.00089460       0.00000000
Si       0.00117288      -2.71127225      -2.71842850       0.00000000
Si      -2.71319724       0.00231318      -2.71825646       0.00000000
Si       2.70771378       2.72476314      -0.00639986       0.00000000
