10
Lattice="16.28999089631971 0.0 0.0 0.0 16.28999089631971 0.0 0.0 0.0 34.40785480372833" Properties=species:S:1:pos:R:3:initial_magmoms:R:1 pbc="T T T"
Si      -0.85142943       1.23342993      -1.77330651       0.00000000
Si       1.12075200       1.77950331       1.07965474       0.00000000
Si      -1.74375979      -1.16191683       1.13578775       0.00000000
Si       1.82653254      -1.60177941      -0.43666383       0.00000000
Si       2.41803873       0.33912522       2.38074377       0.00000000
Si      -0.29699928      -2.42023788       2.40056959       0.00000000
Si       1.42436502      -1.18775277      -2.94427528       0.00000000
Si      -0.86483610      -0.37429533      -3.48427246       0.00000000
Si       0.93869496       2.76408720      -2.49587187       0.00000000
Si      -2.67634763       2.69534340      -0.68140704       0.00000000
