10
Lattice="16.28999089631971 0.0 0.0 0.0 16.28999089631971 0.0 0.0 0.0 34.40785480372833" Properties=species:S:1:pos:R:3:initial_magmoms:R:1 pbc="T T T"
Si      -1.16421372      -0.09057240      -2.06619284       0.00000000
Si      -0.11837943      -1.30723340       2.01375524       0.00000000
Si       2.14305443       1.14995997      -0.17909298       0.00000000
Si      -1.46696337       1.94403231       0.77297289       0.00000000
Si       0.46486156       2.49305418       2.37607015       0.00000000
Si       0.67537755       1.09341738      -3.23289503       0.00000000
Si       2.73961052       1.72372635       2.11168005       0.00000000
Si       2.03865182      -1.72842276       2.85595677       0.00000000
Si      -3.09524661       1.55833398      -1.85248553       0.00000000
Si      -0.95573430      -3.47140619       1.75937782       0.00000000
