10
Lattice="16.28999089631971 0.0 0.0 0.0 16.28999089631971 0.0 0.0 0.0 34.40785480372833" Properties=species:S:1:pos:R:3:initial_magmoms:R:1 pbc="T T T"
Si       2.21723190       0.03113182       0.67645880       0.00000000
Si      -1.05254577       1.07397526       1.78477083       0.00000000
Si      -0.01752804       1.81798843      -1.59315338       0.00000000
Si      -0.68766606      -2.30063574       0.77042671       0.00000000
Si      -2.94596505      -1.60619304       0.40935048       0.00000000
Si       1.88794584      -1.73729496       2.27573679       0.00000000
Si      -0.31744323       0.11797381       3.72145243       0.00000000
Si       3.48089607      -0.67121479      -1.20599598       0.00000000
Si      -3.29043339       0.34402036       1.76078855       0.00000000
Si      -0.43337916       3.35903872       1.79492116       0.00000000
