10
Lattice="16.28999089631971 0.0 0.0 0.0 16.28999089631971 0.0 0.0 0.0 34.40785480372833" Properties=species:S:1:pos:R:3:initial_magmoms:R:1 pbc="T T T"
Si       0.01752804      -1.81798843       1.59315338       0.00000000
Si      -1.00455543       1.89651438       1.11921933       0.00000000
Si       2.14984017       0.76206249      -0.85362495       0.00000000
Si      -1.28135511      -0.57870225      -2.06536705       0.00000000
Si       0.52155693       0.37636416      -3.47908337       0.00000000
Si      -1.03501773      -0.74401317       3.37792422       0.00000000
Si       2.23475994      -1.78685662       2.26961219       0.00000000
Si      -0.41585112       1.54105029       3.38807454       0.00000000
Si       2.04072975       3.17035980      -1.04482950       0.00000000
Si      -0.37005993       3.99075678       0.22492427       0.00000000
