10
Lattice="16.28999089631971 0.0 0.0 0.0 16.28999089631971 0.0 0.0 0.0 34.40785480372833" Properties=species:S:1:pos:R:3:initial_magmoms:R:1 pbc="T T T"
Si      -2.28525894       0.45766755      -0.23455848       0.00000000
Si       0.32162976      -1.11345408       2.08266771       0.00000000
Si       0.23692176      -1.49006259      -2.05497587       0.00000000
Si       1.27563732       2.13208407       0.67236427       0.00000000
Si       1.08984987      -3.09938101      -0.51271173       0.00000000
Si      -1.71507636       1.20510162      -2.84432691       0.00000000
Si       1.33305957       0.49495536       3.41501732       0.00000000
Si      -2.77030998       2.07871803       1.52540428       0.00000000
Si       1.90446390      -0.30763665      -3.28034349       0.00000000
Si       2.15966304      -2.74490247       1.81422397       0.00000000
