10
Lattice="16.28999089631971 0.0 0.0 0.0 16.28999089631971 0.0 0.0 0.0 34.40785480372833" Properties=species:S:1:pos:R:3:initial_magmoms:R:1 pbc="T T T"
Si       1.35894438      -1.35365013       1.36337760       0.00000000
Si      -1.36021500       1.36076886       1.36313675       0.00000000
Si      -1.34460918      -1.35980775      -1.39849084       0.00000000
Si       1.36399428       1.36311462      -1.38740806       0.00000000
Si      -2.54899404       0.16524576      -2.82308349       0.00000000
Si       2.71613337      -2.71228500       0.00326875       0.00000000
Si      -2.71502172      -2.71520091       0.00034408       0.00000000
Si       2.71818917       2.71261080       0.00185803       0.00000000
Si      -0.00058644      -2.71213839       2.71987363       0.00000000
Si      -2.71435383       2.71818198       0.00605579       0.00000000
