10
Lattice="16.28999089631971 0.0 0.0 0.0 16.28999089631971 0.0 0.0 0.0 34.40785480372833" Properties=species:S:1:pos:R:3:initial_magmoms:R:1 pbc="T T T"
Si      -1.35664586      -1.35852084       1.35601432       0.00000000
Si       1.35834165       1.35692442       1.35597991       0.00000000
Si      -1.35510320       1.35645201      -1.36086583       0.00000000
Si       1.35700587      -1.36159965      -1.36564852       0.00000000
Si      -0.01013238       2.71085148      -2.71324667       0.00000000
Si      -2.71229219       2.71508688      -0.00075697       0.00000000
Si       0.00074934       2.71461447       2.71398988       0.00000000
Si       0.00063531      -2.71590138       2.71337054       0.00000000
Si       2.71551042      -0.00043983       2.71385225       0.00000000
Si      -2.71559193      -0.00057015       2.71378343       0.00000000
