10
Lattice="16.28999089631971 0.0 0.0 0.0 16.28999089631971 0.0 0.0 0.0 34.40785480372833" Properties=species:S:1:pos:R:3:initial_magmoms:R:1 pbc="T T T"
Si      -1.35711990      -1.35637056       1.35697774       0.00000000
Si       1.35837423       1.35827649       1.35656484       0.00000000
Si      -1.35606105       1.35521397      -1.36296471       0.00000000
Si       1.35938421      -1.35474156      -1.36059056       0.00000000
Si      -2.71344159      -2.71419093      -0.00072257       0.00000000
Si       0.00107514      -2.71336014       2.71436837       0.00000000
Si       2.71460531       0.00110772       2.71460922       0.00000000
Si      -2.71463076       0.00068418       2.71464363       0.00000000
Si      -2.71466334       2.71542897      -0.00041289       0.00000000
Si       0.00079821       2.71588509       2.71488448       0.00000000
