10
Lattice="16.28999089631971 0.0 0.0 0.0 16.28999089631971 0.0 0.0 0.0 34.40785480372833" Properties=species:S:1:pos:R:3:initial_magmoms:R:1 pbc="T T T"
Si      -1.24533792       1.18757358      -1.60144568       0.00000000
Si       1.44388044      -1.69319889      -1.10855289       0.00000000
Si      -2.31427143      -0.76514130       0.62419324       0.00000000
Si       0.74857437       1.82786832       1.75531769       0.00000000
Si       1.33198443      -2.50175304       1.11746452       0.00000000
Si      -1.07880525      -1.68135606       2.38721830       0.00000000
Si       0.54674127       2.05988679      -2.77936484       0.00000000
Si      -2.32145532      -0.69418206      -2.64359137       0.00000000
Si      -1.09100646       2.11354605       3.17305974       0.00000000
Si       3.17485584      -0.51694686      -2.37139068       0.00000000
