10
Lattice="16.28999089631971 0.0 0.0 0.0 16.28999089631971 0.0 0.0 0.0 34.40785480372833" Properties=species:S:1:pos:R:3:initial_magmoms:R:1 pbc="T T T"
Si      -1.29855735       1.16256843      -1.67480327       0.00000000
Si      -1.73097540      -1.17625203       1.26283779       0.00000000
Si       0.89060103       1.86974991       1.32508164       0.00000000
Si       1.39608951      -1.52691057      -1.64476519       0.00000000
Si      -2.62811457       2.57683365      -0.40797416       0.00000000
Si       2.72905460       2.60770320      -0.15689991       0.00000000
Si      -0.88500312       3.58567335       0.86797303       0.00000000
Si      -2.63847501      -2.86993962      -0.21587500       0.00000000
Si       0.05015691       2.53329048      -3.04155284       0.00000000
Si      -3.17485584       0.51694686       2.37139068       0.00000000
