10
Lattice="16.28999089631971 0.0 0.0 0.0 16.28999089631971 0.0 0.0 0.0 34.40785480372833" Properties=species:S:1:pos:R:3:initial_magmoms:R:1 pbc="T T T"
Si       2.07738225       0.92769921      -0.62811574       0.00000000
Si       0.06999813      -2.34518985      -0.26156866       0.00000000
Si      -0.42619527       0.43056099       2.29135796       0.00000000
Si      -1.64602305       0.94815945      -1.45321656       0.00000000
Si       1.67962932       1.49464008      -2.81487377       0.00000000
Si       2.31622623       2.61360018       0.98798769       0.00000000
Si       1.70927712       0.03427416       3.30198604       0.00000000
Si      -2.05584687      -1.12102893       2.92659613       0.00000000
Si       0.55224729      -3.24070002       1.88716867       0.00000000
Si       0.11746719       3.53346390       1.39954028       0.00000000
