10
Lattice="16.28999089631971 0.0 0.0 0.0 16.28999089631971 0.0 0.0 0.0 34.40785480372833" Properties=species:S:1:pos:R:3:initial_magmoms:R:1 pbc="T T T"
Si       1.66418640       1.59423714      -0.41100206       0.00000000
Si       0.21721086      -0.35974836       2.32645399       0.00000000
Si       0.72123975      -2.07848997      -0.89099190       0.00000000
Si      -2.13547239       0.39628683      -1.01062808       0.00000000
Si       3.27621615      -0.22840209      -0.65863552       0.00000000
Si       0.60694911       2.57932602      -2.31399834       0.00000000
Si      -2.31308226      -2.72401380       0.58782412       0.00000000
Si      -0.90543078      -2.47699224       2.51924131       0.00000000
Si      -1.70927712      -0.03427416      -3.30198604       0.00000000
Si      -1.15702983      -3.27497418      -1.41481737       0.00000000
