10
Lattice="16.28999089631971 0.0 0.0 0.0 16.28999089631971 0.0 0.0 0.0 34.40785480372833" Properties=species:S:1:pos:R:3:initial_magmoms:R:1 pbc="T T T"
Si      -1.27104354       1.97283303      -0.02945314       0.00000000
Si       1.52601462      -1.46582307      -1.01768169       0.00000000
Si      -1.60948458      -1.53174870       0.89756380       0.00000000
Si       1.99625805       0.91406448       1.04021885       0.00000000
Si      -2.53970874       0.63374616       1.51814422       0.00000000
Si       0.81221940       1.51586595       3.12151674       0.00000000
Si      -0.30110436       3.17210283       1.75325322       0.00000000
Si       3.48381004      -0.92271447       0.75752375       0.00000000
Si       0.40337298      -3.58306695      -0.82489437       0.00000000
Si       1.30880376      -1.10607471      -3.34413569       0.00000000
