10
Lattice="16.28999089631971 0.0 0.0 0.0 16.28999089631971 0.0 0.0 0.0 34.40785480372833" Properties=species:S:1:pos:R:3:initial_magmoms:R:1 pbc="T T T"
Si      -1.35413883       1.35741312      -1.35708096       0.00000000
Si      -1.35531171      -1.35788553       1.35752826       0.00000000
Si       1.35957969       1.35702216       1.35745945       0.00000000
Si       1.36021500      -1.36076886      -1.36313675       0.00000000
Si       0.01606194       2.69332069      -2.72377204       0.00000000
Si      -2.71293660      -0.00011403       2.71491889       0.00000000
Si      -2.71173114       2.71631196       0.00075697       0.00000000
Si      -2.71340901      -2.71575477      -0.00024086       0.00000000
Si       0.00201996       2.71521087       2.71481567       0.00000000
Si       2.71516204       2.71502464      -0.00030967       0.00000000
