10
Lattice="16.28999089631971 0.0 0.0 0.0 16.28999089631971 0.0 0.0 0.0 34.40785480372833" Properties=species:S:1:pos:R:3:initial_magmoms:R:1 pbc="T T T"
Si       0.89440245      -0.65265885      -2.00167807       0.00000000
Si      -0.64687590      -1.89351702       1.25705727       0.00000000
Si      -1.55290941       1.75523121       0.41747074       0.00000000
Si       2.24454438       0.95760765       0.71974391       0.00000000
Si       0.55687365       2.24311671       1.79681359       0.00000000
Si       0.87048873      -1.40695101       3.14432916       0.00000000
Si      -0.84870900      -1.66149855      -3.27762526       0.00000000
Si       2.97395520      -0.58512051       2.34283214       0.00000000
Si       2.67000660      -2.36858229      -1.54456947       0.00000000
Si       1.93808273       1.10312622      -3.24886028       0.00000000
