10
Lattice="16.28999089631971 0.0 0.0 0.0 16.28999089631971 0.0 0.0 0.0 34.40785480372833" Properties=species:S:1:pos:R:3:initial_magmoms:R:1 pbc="T T T"
Si      -1.66418640      -1.59423714       0.41100206       0.00000000
Si      -0.01303200       2.14360110       1.05208956       0.00000000
Si      -1.05723729       0.98508888      -1.90299629       0.00000000
Si       1.61202975      -1.82263923      -0.24763347       0.00000000
Si       2.13815114       2.61923652       0.00206447       0.00000000
Si      -1.44697554      -1.95398550       2.73745605       0.00000000
Si      -1.29608127      -0.70081209      -3.51909972       0.00000000
Si      -0.94294665      -3.67272711      -0.47998984       0.00000000
Si       0.76878930      -3.24891018      -1.98110216       0.00000000
Si      -3.79965879      -1.19795031      -0.59962602       0.00000000
