10
Lattice="16.28999089631971 0.0 0.0 0.0 16.28999089631971 0.0 0.0 0.0 34.40785480372833" Properties=species:S:1:pos:R:3:initial_magmoms:R:1 pbc="T T T"
Si      -1.39305564       1.63179603       1.13504695       0.00000000
Si      -1.01035467      -1.90495260       1.21119157       0.00000000
Si      -0.04665456      -0.18725355      -2.53207545       0.00000000
Si       2.18097755       1.00277982       0.98110612       0.00000000
Si      -3.30771708       0.35308575       1.92422595       0.00000000
Si       0.47719732      -3.74173155       0.92849648       0.00000000
Si      -2.24598375       3.24111446      -0.40721719       0.00000000
Si      -0.32324247       1.98627458       3.46198265       0.00000000
Si      -3.00661272      -2.81901708       0.17097273       0.00000000
Si       3.95130959       1.10807838      -0.60433990       0.00000000
