10
Lattice="16.28999089631971 0.0 0.0 0.0 16.28999089631971 0.0 0.0 0.0 34.40785480372833" Properties=species:S:1:pos:R:3:initial_magmoms:R:1 pbc="T T T"
Si       1.91174553      -0.32674482      -1.36785062       0.00000000
Si      -2.00478424       0.45913365      -1.19952730       0.00000000
Si       0.31253994       2.30265666       0.55131737       0.00000000
Si      -0.11135844      -1.65825684       1.77678821       0.00000000
Si      -1.09138113       1.74726540       3.23103700       0.00000000
Si      -3.24803239       2.03859576       0.17114477       0.00000000
Si       2.05105761       2.46655035       2.14367937       0.00000000
Si       1.91207133      -1.29195990       3.10056234       0.00000000
Si       1.52563995       0.51842925      -3.51675999       0.00000000
Si       1.06908012       3.51890064      -1.35102517       0.00000000
