10
Lattice="16.28999089631971 0.0 0.0 0.0 16.28999089631971 0.0 0.0 0.0 34.40785480372833" Properties=species:S:1:pos:R:3:initial_magmoms:R:1 pbc="T T T"
Si       1.34497082       1.35439947      -1.35238084       0.00000000
Si       1.35510320      -1.35645201       1.36086583       0.00000000
Si      -1.35718899       1.35863487       1.36010885       0.00000000
Si      -1.37983209      -1.34470692      -1.38243268       0.00000000
Si      -2.71613337       2.71228500      -0.00326875       0.00000000
Si      -2.71570983      -2.71287144      -0.00055053       0.00000000
Si       2.71210907      -2.71805166      -0.00478269       0.00000000
Si       2.71344485       0.00047241       2.71684573       0.00000000
Si       2.71235342       2.71810053       0.00216770       0.00000000
Si      -0.00154266      -2.71497285       2.71688014       0.00000000
