10
Lattice="16.28999089631971 0.0 0.0 0.0 16.28999089631971 0.0 0.0 0.0 34.40785480372833" Properties=species:S:1:pos:R:3:initial_magmoms:R:1 pbc="T T T"
Si      -1.34144892      -1.35332433      -1.38457285       0.00000000
Si       1.25463951      -1.48633218       1.34975208       0.00000000
Si       1.37347506       1.36146933      -1.38305890       0.00000000
Si      -1.37849238       1.43376435       1.49784357       0.00000000
Si       2.52762156      -0.07410321       2.78356260       0.00000000
Si      -2.68030610       2.71485882      -0.03048538       0.00000000
Si      -2.71145747      -2.70084942       0.00997828       0.00000000
Si      -2.69840103       0.00097740      -2.74430322       0.00000000
Si       2.74116717      -2.71191033      -0.02405110       0.00000000
Si       0.01749546      -2.71347417      -2.74333980       0.00000000
