10
Lattice="16.28999089631971 0.0 0.0 0.0 16.28999089631971 0.0 0.0 0.0 34.40785480372833" Properties=species:S:1:pos:R:3:initial_magmoms:R:1 pbc="T T T"
Si      -1.30181372       1.28109447      -1.52832895       0.00000000
Si       1.28718693       1.52956584       1.45528103       0.00000000
Si      -1.83845356      -0.73795329       1.48198154       0.00000000
Si       1.37849238      -1.43376435      -1.49784357       0.00000000
Si       2.64139092       0.02648754       2.66389202       0.00000000
Si      -2.57037743       2.73375522      -0.22230927       0.00000000
Si      -2.72905460      -2.60770320       0.15689991       0.00000000
Si      -3.61405772       0.97797015       1.02487294       0.00000000
Si       0.03982905       2.63663424      -2.88678622       0.00000000
Si       2.63313189      -2.92009653      -0.14809149       0.00000000
