10
Lattice="16.28999089631971 0.0 0.0 0.0 16.28999089631971 0.0 0.0 0.0 34.40785480372833" Properties=species:S:1:pos:R:3:initial_magmoms:R:1 pbc="T T T"
Si       1.14798888      -2.04633351      -0.27760273       0.00000000
Si      -2.18678915      -0.88936884       0.39493358       0.00000000
Si       0.22996593       1.38896685      -1.94008798       0.00000000
Si       1.19135286       1.08095553       1.78143327       0.00000000
Si      -1.95453122      -2.02386960       2.40025888       0.00000000
Si      -1.04975855       3.34262655      -1.56352820       0.00000000
Si       3.52966833       1.10354976       1.19381560       0.00000000
Si       1.32683679      -3.18164877       1.82175930       0.00000000
Si      -1.23222773       0.53077707      -3.67276529       0.00000000
Si       0.30651264       3.28781070       2.20547591       0.00000000
