10
Lattice="16.28999089631971 0.0 0.0 0.0 16.28999089631971 0.0 0.0 0.0 34.40785480372833" Properties=species:S:1:pos:R:3:initial_magmoms:R:1 pbc="T T T"
Si       0.85142943      -1.23342993       1.77330651       0.00000000
Si      -0.01340667      -1.60772526      -1.71096594       0.00000000
Si       1.79012439       1.53065727      -0.72256535       0.00000000
Si      -1.82491820       1.46191347       1.09189947       0.00000000
Si      -2.02327599       2.21017833      -1.27887186       0.00000000
Si       0.18192672       2.00246454      -2.59091291       0.00000000
Si       1.97218143       0.54607338       2.85296126       0.00000000
Si       2.27579445      -2.42118270      -1.17096877       0.00000000
Si       2.52653013       2.39415759       1.50419737       0.00000000
Si      -0.89233036      -2.39534676       2.90909426       0.00000000
