10
Lattice="16.28999089631971 0.0 0.0 0.0 16.28999089631971 0.0 0.0 0.0 34.40785480372833" Properties=species:S:1:pos:R:3:initial_magmoms:R:1 pbc="T T T"
Si       1.87211196      -0.35899902       1.39751021       0.00000000
Si      -1.60852347       0.46330619       1.73212679       0.00000000
Si       0.54450954       2.15281214      -1.01221084       0.00000000
Si      -0.73630800      -1.98058707      -1.38818568       0.00000000
Si       1.30295565       1.25276520      -3.03601317       0.00000000
Si      -0.52865937       2.24299358       2.91352114       0.00000000
Si      -1.91833972      -1.00584234      -3.07485966       0.00000000
Si       1.67931981       1.27825579       3.13772285       0.00000000
Si       1.54067562      -2.47059027       2.46824884       0.00000000
Si       3.62893959      -1.14442137      -0.32756296       0.00000000
