10
Lattice="16.28999089631971 0.0 0.0 0.0 16.28999089631971 0.0 0.0 0.0 34.40785480372833" Properties=species:S:1:pos:R:3:initial_magmoms:R:1 pbc="T T T"
Si      -2.29435758      -0.36083979      -0.36159235       0.00000000
Si       0.05652304       1.00530477       2.12499589       0.00000000
Si       1.27972448      -1.95365970      -0.37655977       0.00000000
Si       0.39483539       1.75937117      -1.55867669       0.00000000
Si      -0.18246918      -2.81184948      -2.10923709       0.00000000
Si       0.13222267       3.30998858       1.56204867       0.00000000
Si      -1.76219586       2.18056052      -2.40087823       0.00000000
Si      -3.35514609       1.11448035       1.08085455       0.00000000
Si      -2.59955073       0.01638774      -2.65525564       0.00000000
Si      -2.05846209       0.90091845       3.08552610       0.00000000
