10
Lattice="10.86 0.0 0.0 0.0 10.86 0.0 0.0 0.0 10.86" Properties=species:S:1:pos:R:3:initial_magmoms:R:1 pbc="T T T"
Si      -1.47570024      -1.07597622       1.21977348       0.00000000
Si       1.33947240      -0.95422476      -1.45911702       0.00000000
Si       1.23929976       1.63902378       1.21977348       0.00000000
Si      -1.47570024       1.63902378      -1.49522652       0.00000000
Si       0.16045650      -2.41541604       2.66401230       0.00000000
Si       2.53794942       0.19568634       2.69056500       0.00000000
Si      -0.03307956      -2.58715608      -2.67221160       0.00000000
Si       2.58328992       0.05445204      -2.69634252       0.00000000
Si      -2.83320024      -2.43347622      -0.13772652       0.00000000
Si      -2.83320024       0.28152378       2.57727348       0.00000000
