10
Lattice="10.86 0.0 0.0 0.0 10.86 0.0 0.0 0.0 10.86" Properties=species:S:1:pos:R:3:initial_magmoms:R:1 pbc="T T T"
Si      -1.57095330       1.06677780      -1.11645144       0.00000000
Si       1.14404670       1.06677780       1.59854856       0.00000000
Si       1.14404670      -1.64822220      -1.11645144       0.00000000
Si      -0.21345330       2.42427780      -2.47395144       0.00000000
Si       2.50154670       2.42427780       0.24104856       0.00000000
Si       2.50154670      -0.29072220      -2.47395144       0.00000000
Si      -2.94196314      -0.51779394      -2.31756744       0.00000000
Si      -2.92845330       2.42427780       0.24104856       0.00000000
Si      -0.59216322      -2.95666758      -2.34166578       0.00000000
Si      -0.21345330       2.42427780       2.95604856       0.00000000
