10
Lattice="10.86 0.0 0.0 0.0 10.86 0.0 0.0 0.0 10.86" Properties=species:S:1:pos:R:3:initial_magmoms:R:1 pbc="T T T"
Si      -1.00899174       1.03881330       1.55987610       0.00000000
Si       1.53116226       1.52319102      -0.78560154       0.00000000
Si      -1.16807988      -1.64357412      -1.22335728       0.00000000
Si       1.35480672      -2.09160342       0.84081378       0.00000000
Si      -2.42613486      -0.03407868      -2.34517356       0.00000000
Si       0.28886514       2.68092132      -2.34517356       0.00000000
Si       0.28886514      -2.74907868      -2.34517356       0.00000000
Si      -2.42613486       2.68092132       0.36982644       0.00000000
Si      -2.42613486      -2.74907868       0.36982644       0.00000000
Si       3.00386514      -0.03407868      -2.34517356       0.00000000
