10
Lattice="10.86 0.0 0.0 0.0 10.86 0.0 0.0 0.0 10.86" Properties=species:S:1:pos:R:3:initial_magmoms:R:1 pbc="T T T"
Si      -1.08652128      -0.74153166       2.12452008       0.00000000
Si       0.09931470      -1.83098514      -1.80845064       0.00000000
Si      -1.35480672       2.09160342      -0.84081378       0.00000000
Si      -2.52288660       0.44802930      -2.06417106       0.00000000
Si      -1.06594158      -0.65747526      -3.18598734       0.00000000
Si      -1.06594158      -3.37247526      -0.47098734       0.00000000
Si      -3.78094158      -0.65747526      -0.47098734       0.00000000
Si       3.11462628      -2.13875754       1.04924976       0.00000000
Si       0.17635554       3.61479444      -1.62641532       0.00000000
Si      -2.36379846       3.13041672       0.71906232       0.00000000
