10
Lattice="10.86 0.0 0.0 0.0 10.86 0.0 0.0 0.0 10.86" Properties=species:S:1:pos:R:3:initial_magmoms:R:1 pbc="T T T"
Si      -1.46717514      -1.19819466       1.18920258       0.00000000
Si       1.24782486       1.51680534       1.18920258       0.00000000
Si       1.24782486      -1.19819466      -1.52579742       0.00000000
Si      -0.10967514      -2.55569466       2.54670258       0.00000000
Si       2.60532486       0.15930534       2.54670258       0.00000000
Si       2.60532486      -2.55569466      -0.16829742       0.00000000
Si      -1.57189812       2.30186388      -2.36744742       0.00000000
Si      -2.82467514       0.15930534       2.54670258       0.00000000
Si      -2.82467514      -2.55569466      -0.16829742       0.00000000
Si      -0.10967514       2.87430534       2.54670258       0.00000000
