10
Lattice="10.86 0.0 0.0 0.0 10.86 0.0 0.0 0.0 10.86" Properties=species:S:1:pos:R:3:initial_magmoms:R:1 pbc="T T T"
Si       1.35750000      -1.35750000      -1.35750000       0.00000000
Si      -1.35750000       1.35750000      -1.35750000       0.00000000
Si      -1.35750000      -1.35750000       1.35750000       0.00000000
Si       1.35750000       1.35750000       1.35750000       0.00000000
Si       0.12997248      -2.59191276       2.67536100       0.00000000
Si      -2.58806832       2.76633522       0.04295130       0.00000000
Si      -0.13896456       2.73322308       2.64207510       0.00000000
Si      -2.74463694      -2.68033488       0.04715412       0.00000000
Si       0.00000000       2.71500000      -2.71500000       0.00000000
Si       2.71500000       2.71500000       0.00000000       0.00000000
