10
Lattice="10.86 0.0 0.0 0.0 10.86 0.0 0.0 0.0 10.86" Properties=species:S:1:pos:R:3:initial_magmoms:R:1 pbc="T T T"
Si       1.36877268       1.30041984       1.21443036       0.00000000
Si      -1.34622732      -1.41458016       1.21443036       0.00000000
Si      -1.31406000       1.34192676      -1.43862420       0.00000000
Si       1.36877268      -1.41458016      -1.50056964       0.00000000
Si      -2.47673160       2.65816962      -0.11998128       0.00000000
Si       0.01127268       2.65791984       2.57193036       0.00000000
Si      -2.70372732      -0.05708016       2.57193036       0.00000000
Si       2.72627268      -0.05708016       2.57193036       0.00000000
Si       0.01127268      -2.77208016       2.57193036       0.00000000
Si      -2.67454650      -0.23006910      -2.70239154       0.00000000
