10
Lattice="10.86 0.0 0.0 0.0 10.86 0.0 0.0 0.0 10.86" Properties=species:S:1:pos:R:3:initial_magmoms:R:1 pbc="T T T"
Si       1.35750000       1.35750000       1.35750000       0.00000000
Si      -1.35750000      -1.35750000       1.35750000       0.00000000
Si      -1.35750000       1.35750000      -1.35750000       0.00000000
Si       1.35750000      -1.35750000      -1.35750000       0.00000000
Si      -2.48800428       0.00024978      -2.69191164       0.00000000
Si      -0.01201116       2.58107448      -2.64047868       0.00000000
Si      -0.01127268      -2.65791984      -2.57193036       0.00000000
Si       2.68498296       0.17321700       2.55595530       0.00000000
Si      -2.65399938      -0.16591908       2.68053036       0.00000000
Si       0.12693168      -2.66366478       2.75795130       0.00000000
