10
Lattice="10.86 0.0 0.0 0.0 10.86 0.0 0.0 0.0 10.86" Properties=species:S:1:pos:R:3:initial_magmoms:R:1 pbc="T T T"
Si       1.20120288       1.46087634       1.25199510       0.00000000
Si       1.20120288      -1.25412366      -1.46300490       0.00000000
Si      -1.51379712      -1.25412366       1.25199510       0.00000000
Si       2.55870288       0.10337634       2.60949510       0.00000000
Si       2.55870288      -2.61162366      -0.10550490       0.00000000
Si      -0.15629712      -2.61162366       2.60949510       0.00000000
Si       2.55870288       2.81837634      -0.10550490       0.00000000
Si       2.55870288       0.10337634      -2.82050490       0.00000000
Si      -0.15629712       2.81837634       2.60949510       0.00000000
Si      -2.88256980      -2.55454350       0.03756474       0.00000000
