10
Lattice="10.86 0.0 0.0 0.0 10.86 0.0 0.0 0.0 10.86" Properties=species:S:1:pos:R:3:initial_magmoms:R:1 pbc="T T T"
Si       1.34993058       1.20111600       1.22183688       0.00000000
Si      -1.36506942      -1.51388400       1.22183688       0.00000000
Si       1.34993058      -1.51388400      -1.49316312       0.00000000
Si      -0.16183572       2.62996620       2.52121416       0.00000000
Si       2.70743058       2.55861600      -0.13566312       0.00000000
Si       2.70743058      -0.15638400       2.57933688       0.00000000
Si      -2.71543440      -0.14540454       2.62614348       0.00000000
Si      -0.00756942      -2.87138400       2.57933688       0.00000000
Si       0.19743480       2.72075580      -2.77732554       0.00000000
Si       2.70743058      -0.15638400      -2.85066312       0.00000000
