10
Lattice="16.28999089631971 0.0 0.0 0.0 16.28999089631971 0.0 0.0 0.0 34.31420841018396" Properties=species:S:1:pos:R:3:initial_magmoms:R:1 pbc="T T T"
Si      -1.31674190       1.21313259      -1.47508972       0.00000000
Si      -1.37450624      -1.33430250       1.35856204       0.00000000
Si       1.33950129       1.37569050       1.36068952       0.00000000
Si       1.35435125      -1.32985044      -1.53476559       0.00000000
Si      -2.20855424      -0.74534895      -2.68858610       0.00000000
Si       0.40631561       2.19859614      -2.78867065       0.00000000
Si       2.19108873       0.50093379      -2.93920716       0.00000000
Si      -0.35768444      -2.45066597      -2.87630919       0.00000000
Si       2.69229945      -2.70931112      -0.03187792       0.00000000
Si       2.69501988       0.02101410       2.71888096       0.00000000
