10
Lattice="16.28999089631971 0.0 0.0 0.0 16.28999089631971 0.0 0.0 0.0 34.31420841018396" Properties=species:S:1:pos:R:3:initial_magmoms:R:1 pbc="T T T"
Si       1.62649134       1.11719264      -1.25914342       0.00000000
Si      -1.30507335       1.36631560       1.42162129       0.00000000
Si      -1.53733617      -1.37048798      -1.28175791       0.00000000
Si       1.41345072      -1.36729445       1.43461609       0.00000000
Si       0.52357689      -2.03444085      -2.66225360       0.00000000
Si       2.57870700      -0.73962302      -2.55141865       0.00000000
Si      -2.65149072      -0.00872492       2.80367485       0.00000000
Si       0.92693358       1.76424772      -3.33120947       0.00000000
Si       0.06102234       2.70563053       2.80902787       0.00000000
Si       2.79093312       2.72969086       0.00227503       0.00000000
