10
Lattice="16.28999089631971 0.0 0.0 0.0 16.28999089631971 0.0 0.0 0.0 34.31420841018396" Properties=species:S:1:pos:R:3:initial_magmoms:R:1 pbc="T T T"
Si      -1.00929582      -1.86958049       1.05612330       0.00000000
Si       1.21593447      -1.40751139      -1.47441373       0.00000000
Si       1.12883184       1.40980176       1.59924889       0.00000000
Si      -1.49983659       1.27974240      -1.46446260       0.00000000
Si       2.52035622      -2.75058963       0.00655402       0.00000000
Si       2.67693570       2.65082283       0.14525213       0.00000000
Si       2.55695985      -0.06563241      -2.84399750       0.00000000
Si      -0.15312600       2.64720645      -2.83922782       0.00000000
Si      -3.00550500       2.46967803      -0.09872203       0.00000000
Si      -1.76984334      -1.37373407       3.20594397       0.00000000
