10
Lattice="16.28999089631971 0.0 0.0 0.0 16.28999089631971 0.0 0.0 0.0 34.31420841018396" Properties=species:S:1:pos:R:3:initial_magmoms:R:1 pbc="T T T"
Si       1.63419651       1.46238588      -0.83061019       0.00000000
Si      -2.23775730       0.07727976      -0.75731500       0.00000000
Si      -0.11072313      -0.62205646       2.29191589       0.00000000
Si       1.08512577      -2.04137225      -0.57153777       0.00000000
Si       2.26626480      -2.22256592       1.47273233       0.00000000
Si      -2.59936272      -2.23142768      -1.05989786       0.00000000
Si      -0.58166703      -3.07254554      -1.84270834       0.00000000
Si       0.11894958      -3.00784166       2.03363270       0.00000000
Si       3.72573477       0.79042338       0.15252674       0.00000000
Si       1.00561428       3.69001080      -0.26092539       0.00000000
