10
Lattice="16.28999089631971 0.0 0.0 0.0 16.28999089631971 0.0 0.0 0.0 34.31420841018396" Properties=species:S:1:pos:R:3:initial_magmoms:R:1 pbc="T T T"
Si      -1.69515369       0.36563557       1.51064956       0.00000000
Si       1.84476105       0.56041510       1.30517596       0.00000000
Si       0.11072313       0.62205646      -2.29191589       0.00000000
Si       0.22967271      -2.38578520      -0.25828319       0.00000000
Si       2.37698793      -1.60050946      -0.81918356       0.00000000
Si       1.19584890      -1.41931579      -2.86345366       0.00000000
Si      -3.33021357      -0.95971883       0.47789425       0.00000000
Si       0.40364991      -2.87464810       2.02423060       0.00000000
Si       1.97143209      -1.28160989       2.74280484       0.00000000
Si      -2.12703417       0.69933622      -3.04923089       0.00000000
