10
Lattice="16.28999089631971 0.0 0.0 0.0 16.28999089631971 0.0 0.0 0.0 34.31420841018396" Properties=species:S:1:pos:R:3:initial_magmoms:R:1 pbc="T T T"
Si      -1.27855323      -1.60813756       1.26881115       0.00000000
Si       1.53733617       1.37048798       1.28175791       0.00000000
Si      -1.13160114       0.81573040      -2.02639240       0.00000000
Si       2.06091306      -0.66395287      -1.38049569       0.00000000
Si       1.18633554       1.22024857      -2.64535243       0.00000000
Si      -2.47798593      -0.01264609       2.69976248       0.00000000
Si       0.24526224      -2.71554805       2.71429799       0.00000000
Si       0.23226282       2.73680358       2.70337920       0.00000000
Si       3.03586956      -2.59552333      -0.19075279       0.00000000
Si       2.95078689       0.00319353       2.71637400       0.00000000
