10
Lattice="16.28999089631971 0.0 0.0 0.0 16.28999089631971 0.0 0.0 0.0 34.31420841018396" Properties=species:S:1:pos:R:3:initial_magmoms:R:1 pbc="T T T"
Si      -1.26570042       1.45777581      -1.37057888       0.00000000
Si       1.47085668      -1.27272141      -1.35592670       0.00000000
Si       1.78039926       1.00667313       1.25298402       0.00000000
Si      -1.76298525      -1.10993544       1.35788261       0.00000000
Si       0.38661057       2.46213576       2.43088851       0.00000000
Si      -2.60631855       0.09526392      -2.74469212       0.00000000
Si       0.10666692      -2.61821025      -2.74095187       0.00000000
Si      -2.78169669       2.58374061       0.13756574       0.00000000
Si      -0.49394538      -2.50839936       2.91135633       0.00000000
Si      -2.74571208      -2.79573867      -0.00044608       0.00000000
