10
Lattice="16.28999089631971 0.0 0.0 0.0 16.28999089631971 0.0 0.0 0.0 34.31420841018396" Properties=species:S:1:pos:R:3:initial_magmoms:R:1 pbc="T T T"
Si      -1.12883184      -1.40980176      -1.59924889       0.00000000
Si       1.54810386       1.24102107      -1.45399677       0.00000000
Si       0.93390570      -1.13401206       2.00570092       0.00000000
Si      -1.88257014       1.34721558       1.21383149       0.00000000
Si      -2.36573154      -0.61084242       2.47570289       0.00000000
Si      -2.13812766      -3.27938225      -0.54312559       0.00000000
Si       0.08223192       2.58289353      -3.05345154       0.00000000
Si      -0.54522630      -0.92403396       3.88752747       0.00000000
Si      -2.62866843      -0.13005936      -3.06371150       0.00000000
Si       3.51414396       1.99023075      -0.17397313       0.00000000
