10
Lattice="16.28999089631971 0.0 0.0 0.0 16.28999089631971 0.0 0.0 0.0 34.31420841018396" Properties=species:S:1:pos:R:3:initial_magmoms:R:1 pbc="T T T"
Si       0.98241732       1.67756049      -1.30634264       0.00000000
Si      -2.09706057      -0.69266709      -0.79825188       0.00000000
Si      -0.62374410       0.96669747       2.06190762       0.00000000
Si       1.78180020      -1.57999968      -0.03791722       0.00000000
Si      -0.67336344      -0.94447791       3.39528988       0.00000000
Si      -3.41209363       1.15504245      -0.24630753       0.00000000
Si       1.39364208       0.51953697      -3.34086751       0.00000000
Si      -2.31047586      -2.83719672       0.11508992       0.00000000
Si       2.20586148      -1.53539766      -2.48949721       0.00000000
Si       3.37051503      -0.56733183       1.46353612       0.00000000
