10
Lattice="16.28999089631971 0.0 0.0 0.0 16.28999089631971 0.0 0.0 0.0 34.31420841018396" Properties=species:S:1:pos:R:3:initial_magmoms:R:1 pbc="T T T"
Si      -1.78180020       1.57999968       0.03791722       0.00000000
Si       1.58871483       1.01266785       1.50145334       0.00000000
Si       0.12025278      -2.27825424       0.80696769       0.00000000
Si       0.42406128       0.04460202      -2.45157999       0.00000000
Si      -0.62494956      -3.20064291      -1.20521862       0.00000000
Si      -0.79938288       3.25756017      -1.26842542       0.00000000
Si       2.77148286       0.09309735      -2.57147390       0.00000000
Si      -0.38815812       2.09953665      -3.30295029       0.00000000
Si       1.53238401      -0.09684405       3.62148927       0.00000000
Si      -2.84122035      -2.41768035      -1.57087102       0.00000000
