10
Lattice="16.28999089631971 0.0 0.0 0.0 16.28999089631971 0.0 0.0 0.0 34.31420841018396" Properties=species:S:1:pos:R:3:initial_magmoms:R:1 pbc="T T T"
Si      -1.97959338       0.70661133       1.01106872       0.00000000
Si       1.52852328       1.43941698       1.09434935       0.00000000
Si       0.05633082       1.10951190      -2.12003592       0.00000000
Si       0.11461644      -2.40150438       0.31287713       0.00000000
Si       0.80729982      -2.80002294      -1.94523925       0.00000000
Si      -2.48311728      -1.09042002       2.35704429       0.00000000
Si       2.31617736       0.85165749      -2.61306274       0.00000000
Si       0.06475275       3.16188900       1.76625624       0.00000000
Si      -2.15029629      -2.88440514       0.89114049       0.00000000
Si       3.04311861       2.07280476      -0.74557954       0.00000000
