10
Lattice="16.28999089631971 0.0 0.0 0.0 16.28999089631971 0.0 0.0 0.0 34.31420841018396" Properties=species:S:1:pos:R:3:initial_magmoms:R:1 pbc="T T T"
Si      -1.29828042       1.31670441       1.53980635       0.00000000
Si      -1.66184064      -1.09061550      -1.41808834       0.00000000
Si       1.49232690       1.43672913      -1.36524443       0.00000000
Si       1.41187059      -1.38795687       1.51771142       0.00000000
Si      -2.82209589       2.42411490       0.09431952       0.00000000
Si      -2.60195283      -2.67173919       0.17125202       0.00000000
Si       2.76537411       2.59102224       0.23328871       0.00000000
Si       2.90594052      -2.64046239       0.03007985       0.00000000
Si      -2.65885380      -0.03878649       2.92291679       0.00000000
Si      -3.63475512       0.54538920      -1.45229962       0.00000000
