10
Lattice="16.28999089631971 0.0 0.0 0.0 16.28999089631971 0.0 0.0 0.0 34.31420841018396" Properties=species:S:1:pos:R:3:initial_magmoms:R:1 pbc="T T T"
Si      -1.35772263       1.35639241      -1.36035324       0.00000000
Si       1.35928647      -1.35720135      -1.36121109       0.00000000
Si      -1.38170151      -1.35404109       1.35071094       0.00000000
Si       1.37425698       1.37406217       1.36443663       0.00000000
Si      -2.71178001      -2.71370223      -0.00391182       0.00000000
Si      -2.71164969       2.71548503      -0.00006863       0.00000000
Si       2.71643895      -2.71329498      -0.00030883       0.00000000
Si       2.71528236       2.71594115      -0.00514713       0.00000000
Si      -2.71357191       0.00036994      -2.71799565       0.00000000
Si       0.00130320      -2.71397916      -2.71796134       0.00000000
