10
Lattice="16.28999089631971 0.0 0.0 0.0 16.28999089631971 0.0 0.0 0.0 34.31420841018396" Properties=species:S:1:pos:R:3:initial_magmoms:R:1 pbc="T T T"
Si       1.50001578      -1.24683660      -1.23596416       0.00000000
Si      -1.27255851       1.49291334      -1.24457703       0.00000000
Si       0.83945628       1.85104899       1.17992903       0.00000000
Si      -1.13570622      -1.47686769       1.46758520       0.00000000
Si       0.54734400       0.48723390       3.12722713       0.00000000
Si      -2.00617866       0.32620725       2.80741853       0.00000000
Si       0.11104893      -2.58176952      -2.59539092       0.00000000
Si      -2.60263701       0.13325220      -2.59919980       0.00000000
Si       2.82558195       0.13365945      -2.59559680       0.00000000
Si       0.10914300       2.84695443      -2.59528798       0.00000000
