10
Lattice="16.28999089631971 0.0 0.0 0.0 16.28999089631971 0.0 0.0 0.0 34.31420841018396" Properties=species:S:1:pos:R:3:initial_magmoms:R:1 pbc="T T T"
Si       2.13522804      -0.93719628      -0.20763539       0.00000000
Si      -0.30512799       0.93360338       2.13492830       0.00000000
Si      -0.28087218       1.58654079      -1.73540775       0.00000000
Si      -1.56439386      -1.79853003      -0.23934174       0.00000000
Si      -0.78467301      -2.34204588      -2.37749557       0.00000000
Si       1.76884965      -2.18101923      -2.05768697       0.00000000
Si       1.79411544       1.93157765       2.37742694       0.00000000
Si      -1.01851596      -3.19013586       1.57093965       0.00000000
Si       2.75967261      -1.74128697       1.84466425       0.00000000
Si       0.66627729      -2.36916873       2.95479814       0.00000000
