10
Lattice="16.28999089631971 0.0 0.0 0.0 16.28999089631971 0.0 0.0 0.0 34.31420841018396" Properties=species:S:1:pos:R:3:initial_magmoms:R:1 pbc="T T T"
Si      -0.12667104       1.84202498      -1.43762888       0.00000000
Si       2.11986657      -0.99112271      -0.15890919       0.00000000
Si      -1.56778218      -1.59303821      -0.71857424       0.00000000
Si      -0.40452957       0.58368764       2.36641208       0.00000000
Si      -2.45965968      -0.71113019       2.25557712       0.00000000
Si      -0.31236075      -3.48618056      -0.17565453       0.00000000
Si      -0.24711930       3.52026965       0.16820834       0.00000000
Si       0.40555584      -0.31889957      -3.56198839       0.00000000
Si      -1.97143209       1.28160989      -2.74280484       0.00000000
Si       2.22058764      -1.92436052       2.13616361       0.00000000
