10
Lattice="16.28999089631971 0.0 0.0 0.0 16.28999089631971 0.0 0.0 0.0 34.31420841018396" Properties=species:S:1:pos:R:3:initial_magmoms:R:1 pbc="T T T"
Si      -1.31188257       1.38872250       1.38605459       0.00000000
Si       1.40238981      -1.36661697       1.37208870       0.00000000
Si      -1.91332566      -0.78990210      -1.27714776       0.00000000
Si       1.34855136       0.01430262      -2.29707473       0.00000000
Si      -0.62908722      -0.84315411      -3.24243170       0.00000000
Si       2.64093480       2.56104864       0.00717510       0.00000000
Si      -2.66010813      -2.68395669      -0.04946396       0.00000000
Si      -2.53889424       2.83314051      -0.12892542       0.00000000
Si      -2.67623523       0.00804726       2.75217606       0.00000000
Si       0.04417848      -2.71122615       2.75670553       0.00000000
