10
Lattice="16.28999089631971 0.0 0.0 0.0 16.28999089631971 0.0 0.0 0.0 34.31420841018396" Properties=species:S:1:pos:R:3:initial_magmoms:R:1 pbc="T T T"
Si      -0.43425882       2.26771461      -0.29355822       0.00000000
Si       1.07566128      -0.42844329      -2.04921136       0.00000000
Si       1.79100405      -0.40347072       1.52742921       0.00000000
Si      -1.94313636      -1.38396582       0.37426528       0.00000000
Si       2.42233929      -2.55839337       0.59542048       0.00000000
Si      -2.69410536       2.52556902       0.19946860       0.00000000
Si       2.53379547      -2.20786515      -1.77164357       0.00000000
Si       0.29268243       3.48886188       1.57392499       0.00000000
Si      -1.31455413      -3.61159074      -0.19541953       0.00000000
Si      -2.63581974      -0.98544726       2.63238166       0.00000000
