10
Lattice="16.28999089631971 0.0 0.0 0.0 16.28999089631971 0.0 0.0 0.0 34.31420841018396" Properties=species:S:1:pos:R:3:initial_magmoms:R:1 pbc="T T T"
Si       1.76726952       1.34990343       0.64253391       0.00000000
Si      -1.70520462       1.09323819       1.20079208       0.00000000
Si      -0.96241320       0.37089072      -2.12638406       0.00000000
Si       0.33824556      -2.10103533       1.07935403       0.00000000
Si      -3.22732593      -0.11201004      -1.54812069       0.00000000
Si       2.42408232       0.27249912       2.63828370       0.00000000
Si       3.42689472       0.76579290      -0.87741480       0.00000000
Si       2.61628803      -1.86463485       1.72638310       0.00000000
Si      -2.90633148      -0.74261223       2.14415882       0.00000000
Si       3.36784347      -1.56444273      -0.48860029       0.00000000
