10
Lattice="16.28999089631971 0.0 0.0 0.0 16.28999089631971 0.0 0.0 0.0 34.31420841018396" Properties=species:S:1:pos:R:3:initial_magmoms:R:1 pbc="T T T"
Si       1.35236322      -1.35210258      -1.35743653       0.00000000
Si       1.34553771       1.34734590       1.37160831       0.00000000
Si      -1.36146933       1.36150191      -1.35541199       0.00000000
Si      -1.34493498      -1.36275624       1.38660362       0.00000000
Si      -0.18388152       2.50227432       2.83263949       0.00000000
Si       2.70783783      -2.71085148       0.00164708       0.00000000
Si      -0.00399105      -2.71042794      -2.71380932       0.00000000
Si       2.71052568       0.00439830      -2.71477012       0.00000000
Si      -2.72088612      -2.70982521       0.00741187       0.00000000
Si       2.71041165       2.72046258       0.00332848       0.00000000
