10
Lattice="16.28999089631971 0.0 0.0 0.0 16.28999089631971 0.0 0.0 0.0 34.31420841018396" Properties=species:S:1:pos:R:3:initial_magmoms:R:1 pbc="T T T"
Si       2.24933949       0.05916528       0.56227293       0.00000000
Si      -0.72694125      -1.22114727      -1.86748321       0.00000000
Si      -0.53377443       2.09989503      -0.91824873       0.00000000
Si      -1.51459533      -0.63338778       1.83992888       0.00000000
Si      -2.83592610       1.42254054      -1.06693228       0.00000000
Si      -2.98678779      -0.96329286      -1.37445639       0.00000000
Si       1.87729218       0.95400756       2.88304709       0.00000000
Si       0.30455784       3.56928561       0.70745643       0.00000000
Si      -3.04311861      -2.07280476       0.74557954       0.00000000
Si       3.10736637      -2.11778145      -0.19037533       0.00000000
