10
Lattice="16.28999089631971 0.0 0.0 0.0 16.28999089631971 0.0 0.0 0.0 34.31420841018396" Properties=species:S:1:pos:R:3:initial_magmoms:R:1 pbc="T T T"
Si       1.35682668      -1.35711990      -1.35747084       0.00000000
Si       1.35785295       1.35783666       1.35774536       0.00000000
Si      -1.35760860      -1.35783666       1.35836301       0.00000000
Si      -1.35814617       1.35809730      -1.35784830       0.00000000
Si       2.71248048      -0.00003258      -2.71452992       0.00000000
Si      -0.00043983       2.71404432      -2.71487306       0.00000000
Si       2.71438641      -2.71494027      -0.00099511       0.00000000
Si      -2.71507059      -0.00004887      -2.71480443       0.00000000
Si       2.71485882       2.71519360      -0.00041177       0.00000000
Si      -2.71560816      -2.71472850       0.00013726       0.00000000
