10
Lattice="16.28999089631971 0.0 0.0 0.0 16.28999089631971 0.0 0.0 0.0 34.31420841018396" Properties=species:S:1:pos:R:3:initial_magmoms:R:1 pbc="T T T"
Si      -1.35660542       1.35684297      -1.35705907       0.00000000
Si      -1.35671945      -1.35743104       1.35716202       0.00000000
Si       1.35728808      -1.35752389      -1.35747084       0.00000000
Si       1.35655991       1.35799956       1.35781399       0.00000000
Si       2.71306731      -0.00011403      -2.71422109       0.00000000
Si      -2.71429547      -0.00032580      -2.71404952       0.00000000
Si      -0.00145528       2.71498914      -2.71418677       0.00000000
Si      -2.71471901      -2.71492218      -0.00006863       0.00000000
Si      -0.00140112      -2.71612954      -2.71370637       0.00000000
Si      -2.71294340       0.00228060       2.71703485       0.00000000
