10
Lattice="16.28999089631971 0.0 0.0 0.0 16.28999089631971 0.0 0.0 0.0 34.31420841018396" Properties=species:S:1:pos:R:3:initial_magmoms:R:1 pbc="T T T"
Si      -1.34553771      -1.34734590      -1.37160831       0.00000000
Si       1.36487394       1.37311668      -1.36827983       0.00000000
Si       1.43110908      -1.27682649       1.40523625       0.00000000
Si      -1.52941923       1.15492842       1.46103118       0.00000000
Si       0.39643344       1.96833699       2.60952838       0.00000000
Si       2.33916255       0.53800983       2.69136781       0.00000000
Si      -2.69047269      -2.71010214       0.01499532       0.00000000
Si       0.00682551      -2.69944848      -2.72904483       0.00000000
Si      -2.70700704       0.01415601      -2.72702029       0.00000000
Si       2.73440682      -2.70335808       0.00693147       0.00000000
