10
Lattice="16.28999089631971 0.0 0.0 0.0 16.28999089631971 0.0 0.0 0.0 34.31420841018396" Properties=species:S:1:pos:R:3:initial_magmoms:R:1 pbc="T T T"
Si      -0.92577699       1.56436128       1.53420333       0.00000000
Si      -1.89016128      -1.56105441      -0.05092231       0.00000000
Si      -0.10072107       0.93323781      -2.29507280       0.00000000
Si       1.79986581      -0.92452266       1.44668784       0.00000000
Si       2.38780449      -0.38385756      -0.82515423       0.00000000
Si       0.24382872      -2.21091138       2.73379877       0.00000000
Si      -0.51215760      -1.14251544      -3.35970602       0.00000000
Si      -2.22058764       1.92436052      -2.13616361       0.00000000
Si      -2.62511721       2.50804817       0.23024847       0.00000000
Si      -0.93750579      -3.48034221       1.03865735       0.00000000
