10
Lattice="16.28999089631971 0.0 0.0 0.0 16.28999089631971 0.0 0.0 0.0 34.31420841018396" Properties=species:S:1:pos:R:3:initial_magmoms:R:1 pbc="T T T"
Si       0.59109894      -0.45903591      -2.19017420       0.00000000
Si       1.53642134      -0.90221839       1.56315032       0.00000000
Si      -2.14164630      -1.02578782      -0.20039509       0.00000000
Si      -0.01954800       2.38894479      -0.25203800       0.00000000
Si      -2.28838662       2.31932133       0.44577613       0.00000000
Si       0.26314866      -2.76399665      -2.10493766       0.00000000
Si       2.79774953       1.04751216       1.89191494       0.00000000
Si       2.88270188       0.01317861      -2.06955969       0.00000000
Si       0.16891101      -1.16379670       3.45008970       0.00000000
Si      -3.47105691       0.75484602      -0.84141917       0.00000000
