10
Lattice="16.28999089631971 0.0 0.0 0.0 16.28999089631971 0.0 0.0 0.0 34.31420841018396" Properties=species:S:1:pos:R:3:initial_magmoms:R:1 pbc="T T T"
Si      -2.28459105       0.38576349       0.18025264       0.00000000
Si      -0.24263955      -2.01197790       1.14465400       0.00000000
Si       0.98380197       1.70862552       1.33454894       0.00000000
Si       0.34572267      -0.13294269      -2.37272589       0.00000000
Si      -0.95140116      -0.84540213       3.11658972       0.00000000
Si      -2.22553980       2.71599912      -0.20856188       0.00000000
Si      -3.17557260      -1.53297045      -0.98670561       0.00000000
Si      -0.17694198       3.63244194       0.62702388       0.00000000
Si       1.85421807      -2.96533386       1.26547440       0.00000000
Si      -1.75029534      -3.29406769      -0.13121761       0.00000000
