10
Lattice="16.28999089631971 0.0 0.0 0.0 16.28999089631971 0.0 0.0 0.0 34.31420841018396" Properties=species:S:1:pos:R:3:initial_magmoms:R:1 pbc="T T T"
Si      -1.35387886       1.35927018       1.35723064       0.00000000
Si      -1.35655991      -1.35799956      -1.35781399       0.00000000
Si       1.35873913       1.35713619      -1.35791693       0.00000000
Si       1.36040071      -1.35824391       1.36045618       0.00000000
Si       0.00149379       2.69568549       2.71432403       0.00000000
Si      -2.71316533      -0.00115659      -2.71487306       0.00000000
Si      -2.71456627       2.71365336      -0.00096080       0.00000000
Si      -2.71327936      -2.71543060      -0.00065197       0.00000000
Si       0.00120057       2.71410948      -2.71477012       0.00000000
Si       2.71507711       2.71451673      -0.00120100       0.00000000
