10
Lattice="16.28999089631971 0.0 0.0 0.0 16.28999089631971 0.0 0.0 0.0 34.31420841018396" Properties=species:S:1:pos:R:3:initial_magmoms:R:1 pbc="T T T"
Si      -1.35513252      -1.33436277      -1.36687294       0.00000000
Si      -1.39398417       1.29321423       1.37129948       0.00000000
Si       1.36049193       1.38062637      -1.36886317       0.00000000
Si       1.17043650      -1.56659301       1.40304014       0.00000000
Si       0.12046455       2.47427181       2.71171615       0.00000000
Si       2.70713314      -2.69070075      -0.00748050       0.00000000
Si       0.00109143      -2.69407441      -2.72674578       0.00000000
Si      -2.70951570      -2.71496633       0.00782364       0.00000000
Si       2.71586458       2.71704168      -0.01176978       0.00000000
Si       2.71437079       0.02135619      -2.72609381       0.00000000
