10
Lattice="16.28999089631971 0.0 0.0 0.0 16.28999089631971 0.0 0.0 0.0 34.31420841018396" Properties=species:S:1:pos:R:3:initial_magmoms:R:1 pbc="T T T"
Si      -0.91396674       2.19238965       0.03053966       0.00000000
Si       1.98379687       0.16775442      -1.29659740       0.00000000
Si      -1.03979070      -1.93385106      -0.91354768       0.00000000
Si      -0.20557980      -0.63539145       2.29565614       0.00000000
Si       0.40506714      -3.48337215       0.35751994       0.00000000
Si      -2.54286900       2.15866935      -1.67532353       0.00000000
Si       2.69798957      -2.03382279      -1.62103843       0.00000000
Si      -0.59585562      -2.03369247      -3.15457557       0.00000000
Si       0.72448539      -0.16272081      -3.77919746       0.00000000
Si      -2.47441842      -0.70501491       2.99347027       0.00000000
