10
Lattice="16.28999089631971 0.0 0.0 0.0 16.28999089631971 0.0 0.0 0.0 34.31420841018396" Properties=species:S:1:pos:R:3:initial_magmoms:R:1 pbc="T T T"
Si      -1.16074395       1.92381642      -0.70752506       0.00000000
Si      -0.98380197      -1.70862552      -1.33454894       0.00000000
Si       2.30142581       0.13232367      -0.62221989       0.00000000
Si      -0.81363663      -0.44517312       2.21409122       0.00000000
Si       1.99153625       1.04622525      -2.84746323       0.00000000
Si       0.23112252       2.68263720      -2.47752155       0.00000000
Si      -1.93520313      -2.55402765       1.78204078       0.00000000
Si      -3.20934177       1.00737360      -1.54311081       0.00000000
Si      -3.26839302      -1.32286203      -1.15429630       0.00000000
Si      -1.78456950       3.10029651       1.36869160       0.00000000
