10
Lattice="16.28999089631971 0.0 0.0 0.0 16.28999089631971 0.0 0.0 0.0 34.31420841018396" Properties=species:S:1:pos:R:3:initial_magmoms:R:1 pbc="T T T"
Si       1.05123280      -1.53940500      -1.43121212       0.00000000
Si      -1.32034101      -1.87097166       0.62462188       0.00000000
Si      -1.47700194       1.16945910      -1.50354651       0.00000000
Si       1.25931148       0.33047523       2.48260005       0.00000000
Si       1.97350418      -1.87110198       2.15815903       0.00000000
Si       1.23053031      -3.24820971       0.35100023       0.00000000
Si       2.34177221      -0.10593387      -2.84070333       0.00000000
Si      -1.76427609      -1.77113025       2.86564977       0.00000000
Si      -2.74622100       2.63231739      -0.13385980       0.00000000
Si      -0.72448539       0.16272081       3.77919746       0.00000000
