10
Lattice="16.28999089631971 0.0 0.0 0.0 16.28999089631971 0.0 0.0 0.0 34.31420841018396" Properties=species:S:1:pos:R:3:initial_magmoms:R:1 pbc="T T T"
Si      -1.97763858      -0.85745673      -0.94535697       0.00000000
Si       0.44994609       1.72875996      -1.54925306       0.00000000
Si       1.42087896      -1.81670967      -0.70385344       0.00000000
Si      -1.34855136      -0.01430262       2.29707473       0.00000000
Si      -3.26187702      -0.80420472       1.01992697       0.00000000
Si       1.29238344       2.54674602       2.30424983       0.00000000
Si       1.07377164       0.55227987      -3.62546972       0.00000000
Si       3.18909234      -1.90317699       0.90654758       0.00000000
Si       2.32872066       2.91864672      -0.95839638       0.00000000
Si       0.05383845      -1.38091959       3.66916343       0.00000000
