10
Lattice="16.28999089631971 0.0 0.0 0.0 16.28999089631971 0.0 0.0 0.0 34.31420841018396" Properties=species:S:1:pos:R:3:initial_magmoms:R:1 pbc="T T T"
Si      -1.35378045      -1.33120251      -1.37360196       0.00000000
Si       1.35529542      -1.35632169       1.35771104       0.00000000
Si      -1.35806472       1.35726651       1.35719633       0.00000000
Si       1.34846991       1.36546038      -1.38028294       0.00000000
Si       2.59903692      -0.15887637      -2.75248145       0.00000000
Si      -0.00122175      -2.71319724       2.71418677       0.00000000
Si       2.71401174       0.00086337       2.71380932       0.00000000
Si      -2.71432125       2.71528236      -0.00291671       0.00000000
Si      -2.71813311      -2.71187775      -0.00748050       0.00000000
Si       2.71766070      -2.71275741      -0.00150983       0.00000000
