10
Lattice="16.28999089631971 0.0 0.0 0.0 16.28999089631971 0.0 0.0 0.0 34.31420841018396" Properties=species:S:1:pos:R:3:initial_magmoms:R:1 pbc="T T T"
Si      -1.35742941      -1.35711990       1.35767673       0.00000000
Si       1.35805073       1.35811359       1.35784830       0.00000000
Si      -1.35640314       1.35884664      -1.35942675       0.00000000
Si       1.36091940      -1.35557235      -1.36100521       0.00000000
Si       2.71541987      -2.71437012       0.00178434       0.00000000
Si       0.00029950      -2.71423980       2.71555934       0.00000000
Si      -2.71524978       0.00068418       2.71480443       0.00000000
Si      -2.71614573      -2.71430496       0.00157845       0.00000000
Si       2.71537100       0.00039096       2.71573091       0.00000000
Si      -0.00018315       2.71616202       2.71535346       0.00000000
