10
Lattice="16.28999089631971 0.0 0.0 0.0 16.28999089631971 0.0 0.0 0.0 34.31420841018396" Properties=species:S:1:pos:R:3:initial_magmoms:R:1 pbc="T T T"
Si      -1.35547461       1.35874890      -1.35908361       0.00000000
Si      -1.34796492      -1.34648253       1.38015255       0.00000000
Si       1.35987291      -1.35803214      -1.35891204       0.00000000
Si       1.37210670       1.35483930       1.37689270       0.00000000
Si      -2.70783783       2.71085148      -0.00164708       0.00000000
Si      -2.71182888       0.00042354      -2.71545640       0.00000000
Si      -2.71479366      -2.71347417       0.00398045       0.00000000
Si       0.00275301      -2.71450044      -2.71573091       0.00000000
Si       0.00268785       2.71524978      -2.71641720       0.00000000
Si       2.72056032      -2.71241532      -0.00072060       0.00000000
