10
Lattice="16.28999089631971 0.0 0.0 0.0 16.28999089631971 0.0 0.0 0.0 34.31420841018396" Properties=species:S:1:pos:R:3:initial_magmoms:R:1 pbc="T T T"
Si       1.34529901       1.36223496      -1.37610347       0.00000000
Si      -1.37210670      -1.35483930      -1.37689270       0.00000000
Si      -1.30329774       1.42653159       1.39830477       0.00000000
Si       1.35006702      -1.45112949       1.39404981       0.00000000
Si       2.69880081       2.70277164       0.00823541       0.00000000
Si      -2.72007162      -2.70132183       0.00325985       0.00000000
Si       2.70382627      -2.73083931      -0.02051991       0.00000000
Si       2.70248724       0.00221544      -2.73432923       0.00000000
Si      -2.73440682       2.70335808      -0.00693147       0.00000000
Si      -0.01223379      -2.71287144      -2.73580474       0.00000000
