10
Lattice="16.28999089631971 0.0 0.0 0.0 16.28999089631971 0.0 0.0 0.0 34.31420841018396" Properties=species:S:1:pos:R:3:initial_magmoms:R:1 pbc="T T T"
Si      -1.35567009      -1.35490446      -1.35826007       0.00000000
Si       1.35904777      -1.35307998       1.35894636       0.00000000
Si      -1.35578412       1.36115982       1.35983853       0.00000000
Si       1.35939654       1.36057338      -1.35771104       0.00000000
Si      -2.71383255      -2.71140534      -0.00092648       0.00000000
Si      -2.71322982       0.00291591      -2.71473580       0.00000000
Si       0.00215028      -2.71270854      -2.71538777       0.00000000
Si       2.71623600      -2.71309950       0.00072060       0.00000000
Si      -2.71220355       2.71787247       0.00048040       0.00000000
Si       2.71463795       2.71552671      -0.00102943       0.00000000
