10
Lattice="16.28999089631971 0.0 0.0 0.0 16.28999089631971 0.0 0.0 0.0 34.31420841018396" Properties=species:S:1:pos:R:3:initial_magmoms:R:1 pbc="T T T"
Si      -2.32197660      -0.46332018       0.10719765       0.00000000
Si       0.17301609       1.50975720       1.85588500       0.00000000
Si      -0.15452694       1.07520516      -2.14148232       0.00000000
Si       1.29204135      -2.20416732       0.15070809       0.00000000
Si       1.10848563      -0.06418260       3.32508297       0.00000000
Si      -2.42478279      -2.07265815      -1.75421194       0.00000000
Si      -1.06258041      -0.73963116      -3.42761388       0.00000000
Si      -3.44777850       1.66550589      -0.20897365       0.00000000
Si      -2.70850572      -1.96317306       1.87956182       0.00000000
Si      -0.92007549      -3.67691364      -0.75326592       0.00000000
