10
Lattice="16.28999089631971 0.0 0.0 0.0 16.28999089631971 0.0 0.0 0.0 34.31420841018396" Properties=species:S:1:pos:R:3:initial_magmoms:R:1 pbc="T T T"
Si       1.34455772       1.37034738       1.38115109       0.00000000
Si      -1.36798533      -1.34778573       1.38187169       0.00000000
Si      -1.34100909       1.36521603      -1.39701113       0.00000000
Si       1.38461483      -1.48499640      -1.44195933       0.00000000
Si      -2.57227245      -0.08039115      -2.76120897       0.00000000
Si       2.69870633       2.70866862      -0.00822512       0.00000000
Si       2.71320443      -2.71096551       0.03327451       0.00000000
Si      -2.73455343      -2.69915526       0.00488291       0.00000000
Si      -2.72793969       2.71245181       0.02354299       0.00000000
Si       2.70453815       0.00926901       2.74243081       0.00000000
