10
Lattice="16.28999089631971 0.0 0.0 0.0 16.28999089631971 0.0 0.0 0.0 34.31420841018396" Properties=species:S:1:pos:R:3:initial_magmoms:R:1 pbc="T T T"
Si      -1.35641943       1.35671265      -1.35935813       0.00000000
Si       1.35578412      -1.36115982      -1.35983853       0.00000000
Si       1.35858600       1.36606311       1.36316701       0.00000000
Si      -1.36487394      -1.37311668       1.36827983       0.00000000
Si      -0.12481398       2.52214812       2.81695789       0.00000000
Si       0.06623514      -2.64994317       2.77351607       0.00000000
Si      -2.71236645       2.71420722       0.00092648       0.00000000
Si       2.71638319       2.71142163      -0.00432359       0.00000000
Si       2.71483189      -2.71423980      -0.00089217       0.00000000
Si      -2.71041165      -2.72046258      -0.00332848       0.00000000
