10
Lattice="16.28999089631971 0.0 0.0 0.0 16.28999089631971 0.0 0.0 0.0 34.31420841018396" Properties=species:S:1:pos:R:3:initial_magmoms:R:1 pbc="T T T"
Si      -0.86286827      -1.49649714      -1.65072023       0.00000000
Si       1.77566376       0.71128656      -1.44812903       0.00000000
Si       0.30988956      -0.91390158       2.22524334       0.00000000
Si      -1.76041373       1.63641195       0.36994169       0.00000000
Si       1.82287218       1.04000247       2.91355244       0.00000000
Si      -1.99153625      -1.04622525       2.84746323       0.00000000
Si      -1.27084806      -0.02360421      -3.49174717       0.00000000
Si       2.59764087       2.70011637      -0.44577613       0.00000000
Si       3.44428104      -0.96070275      -1.47029602       0.00000000
Si      -3.15228020       0.87759117       2.13993817       0.00000000
