10
Lattice="16.28999089631971 0.0 0.0 0.0 16.28999089631971 0.0 0.0 0.0 34.31420841018396" Properties=species:S:1:pos:R:3:initial_magmoms:R:1 pbc="T T T"
Si       1.32858959      -1.22596911       1.47523384       0.00000000
Si       1.70086496       0.71944785      -1.54383626       0.00000000
Si      -0.95757181      -1.98671211      -1.10089513       0.00000000
Si      -1.38461483       1.48499640       1.44195933       0.00000000
Si       2.51352419       2.59817355       0.00278288       0.00000000
Si       2.73366725      -2.49768054       0.07971538       0.00000000
Si      -0.03527762      -2.57720832       2.82225257       0.00000000
Si       2.67676628       0.13527216       2.83138016       0.00000000
Si      -2.72562392       2.85021243       0.04494821       0.00000000
Si      -2.75260016       0.13721067       2.82383103       0.00000000
