10
Lattice="16.28999089631971 0.0 0.0 0.0 16.28999089631971 0.0 0.0 0.0 34.31420841018396" Properties=species:S:1:pos:R:3:initial_magmoms:R:1 pbc="T T T"
Si      -1.35350179      -1.34053668      -1.38433888       0.00000000
Si       1.36380206       1.37326329      -1.38646637       0.00000000
Si      -1.31040230       1.45349154       1.38629479       0.00000000
Si       1.19241497      -1.57229451       1.49558561       0.00000000
Si      -2.69880081      -2.70277164      -0.00823541       0.00000000
Si       2.70841124      -2.69825931      -0.01255901       0.00000000
Si       2.69388056       2.73292443      -0.03184360       0.00000000
Si       0.00368643      -2.70055620      -2.74256464       0.00000000
Si      -2.70974769       2.73976623      -0.02027971       0.00000000
Si      -2.71254957       0.01254330      -2.74328524       0.00000000
