10
Lattice="16.28999089631971 0.0 0.0 0.0 16.28999089631971 0.0 0.0 0.0 34.31420841018396" Properties=species:S:1:pos:R:3:initial_magmoms:R:1 pbc="T T T"
Si       1.79009181       0.95654880      -1.33338226       0.00000000
Si       0.82844424      -2.19696714       0.72979499       0.00000000
Si      -0.08123823       1.18848582       2.18657121       0.00000000
Si      -2.27972034      -0.58200912      -2.00161752       0.00000000
Si       0.26010243       2.41359156      -2.44197201       0.00000000
Si      -0.35950401      -2.61552240      -2.40638815       0.00000000
Si      -1.48465431      -0.40899303       3.22972373       0.00000000
Si      -0.70011162      -2.54042550       2.55040497       0.00000000
Si       2.20231026       1.08261711       3.01536275       0.00000000
Si      -1.37821545       1.07815365      -3.62670503       0.00000000
