10
Lattice="16.28999089631971 0.0 0.0 0.0 16.28999089631971 0.0 0.0 0.0 34.31420841018396" Properties=species:S:1:pos:R:3:initial_magmoms:R:1 pbc="T T T"
Si       0.04961934       1.91117538      -1.33338226       0.00000000
Si       2.00795427      -0.02575449       1.19935088       0.00000000
Si      -1.10809467       0.59408001       1.97625931       0.00000000
Si      -0.82197711      -1.98882981      -1.00235290       0.00000000
Si       0.06768495       2.71036278       2.02244626       0.00000000
Si       1.50443037      -1.82278584       2.54532646       0.00000000
Si       0.67336344       0.94447791      -3.39528988       0.00000000
Si       0.98284086       3.61378989      -0.00473536       0.00000000
Si      -2.59764087      -2.70011637       0.44577613       0.00000000
Si      -0.77476869      -1.66011390       3.35932857       0.00000000
