10
Lattice="16.28999089631971 0.0 0.0 0.0 16.28999089631971 0.0 0.0 0.0 34.49183129400761" Properties=species:S:1:pos:R:3:initial_magmoms:R:1 pbc="T T T"
Si      -1.35547135       1.35545832      -1.35887544       0.00000000
Si       1.35931905      -1.35899325      -1.35853052       0.00000000
Si      -1.37312320      -1.35819341       1.35621956       0.00000000
Si       1.36171368       1.36432008       1.36591177       0.00000000
Si      -0.00501732      -2.67890793       2.71423271       0.00000000
Si      -2.71187966       2.70989037       0.00217299       0.00000000
Si       2.71621089       2.70980892      -0.00227646       0.00000000
Si       0.00156384       2.71238274      -2.71588831       0.00000000
Si      -2.71348100      -0.00291591      -2.71585382       0.00000000
Si       2.71389771      -2.71670497       0.00100026       0.00000000
