10
Lattice="16.28999089631971 0.0 0.0 0.0 16.28999089631971 0.0 0.0 0.0 34.49183129400761" Properties=species:S:1:pos:R:3:initial_magmoms:R:1 pbc="T T T"
Si       1.36184400       1.34824374       1.37416223       0.00000000
Si       1.45777581      -1.29392488      -1.32841568       0.00000000
Si      -1.35578412      -1.36784890       1.36512536       0.00000000
Si      -1.22290659       1.35239443      -1.53266263       0.00000000
Si      -2.26885491      -0.20544337      -3.02211528       0.00000000
Si       2.70115893       2.69478654       0.02673118       0.00000000
Si      -2.70853830       2.69781648      -0.02479619       0.00000000
Si      -2.70422145      -2.72358415      -0.02894556       0.00000000
Si       0.00366525       2.70522843       2.72582887       0.00000000
Si      -2.71230129      -0.00703420       2.72589785       0.00000000
