10
Lattice="16.28999089631971 0.0 0.0 0.0 16.28999089631971 0.0 0.0 0.0 34.49183129400761" Properties=species:S:1:pos:R:3:initial_magmoms:R:1 pbc="T T T"
Si      -1.41429780      -1.72845601       0.78262009       0.00000000
Si      -1.06694613       0.58948786      -2.04785015       0.00000000
Si      -0.17889678       1.63553392       1.79743932       0.00000000
Si       2.28353220      -1.26396668       0.33846853       0.00000000
Si       0.59341212      -2.50156312       1.63122309       0.00000000
Si       2.33297235       2.62658494       0.41938641       0.00000000
Si       0.81257778       1.55515906      -3.20398249       0.00000000
Si       3.66458211       0.68862880      -0.26762227       0.00000000
Si      -2.82403440      -0.78256508       2.47251382       0.00000000
Si      -2.44291356       1.53715861       2.57985246       0.00000000
