10
Lattice="16.28999089631971 0.0 0.0 0.0 16.28999089631971 0.0 0.0 0.0 34.49183129400761" Properties=species:S:1:pos:R:3:initial_magmoms:R:1 pbc="T T T"
Si      -2.24772678      -0.43924356       0.32215388       0.00000000
Si       0.77722848      -0.07791507       2.20689208       0.00000000
Si       0.46483515       2.13845346      -0.95090583       0.00000000
Si       1.00048293      -1.75030348      -1.28668399       0.00000000
Si      -0.64848861       1.41773499      -3.05915121       0.00000000
Si      -2.49829956       0.86437998       2.29394951       0.00000000
Si       2.32644006      -1.82119268       2.03032829       0.00000000
Si      -3.16035774       0.42668397      -1.68109830       0.00000000
Si       2.80789101       1.82982312      -1.34325063       0.00000000
Si       2.67587685      -0.47842101      -2.38535291       0.00000000
