10
Lattice="16.28999089631971 0.0 0.0 0.0 16.28999089631971 0.0 0.0 0.0 34.49183129400761" Properties=species:S:1:pos:R:3:initial_magmoms:R:1 pbc="T T T"
Si      -1.69012008      -1.23759644       1.29275456       0.00000000
Si       1.38104991       1.95259547      -0.60609080       0.00000000
Si       0.53820531      -1.46264279      -1.96382800       0.00000000
Si       1.69841169       0.72251314       1.85338510       0.00000000
Si      -2.28353220       1.26396668      -0.33846853       0.00000000
Si      -3.69783000      -0.46448933       0.44415156       0.00000000
Si       0.04944015       3.89055161       0.08091788       0.00000000
Si       1.47414726       0.03698596      -3.61171066       0.00000000
Si       2.56228668      -2.89886693      -0.66859003       0.00000000
Si       2.89771407       1.36541102      -2.28774097       0.00000000
