10
Lattice="16.28999089631971 0.0 0.0 0.0 16.28999089631971 0.0 0.0 0.0 34.49183129400761" Properties=species:S:1:pos:R:3:initial_magmoms:R:1 pbc="T T T"
Si      -1.24903575       1.41905448       1.47750671       0.00000000
Si      -1.18322415      -1.58024403      -1.38984364       0.00000000
Si       1.19265606       1.32346476      -1.64253094       0.00000000
Si       1.45564182      -1.29142233       1.48311853       0.00000000
Si      -2.59766856       0.05747112       2.85397989       0.00000000
Si      -2.55472812       2.90693421       0.04311481       0.00000000
Si       2.73311991      -2.76532524       0.16692331       0.00000000
Si      -0.51033312       2.34533646      -3.07532241       0.00000000
Si       0.11567529      -2.65623111       2.85698068       0.00000000
Si      -2.70630657      -2.82882366      -0.01901881       0.00000000
