10
Lattice="16.28999089631971 0.0 0.0 0.0 16.28999089631971 0.0 0.0 0.0 34.49183129400761" Properties=species:S:1:pos:R:3:initial_magmoms:R:1 pbc="T T T"
Si       1.35721764      -1.35400851      -1.35659897       0.00000000
Si      -1.35449721      -1.34548884       1.36818824       0.00000000
Si      -1.35508365       1.36208835      -1.35556422       0.00000000
Si       1.38267891       1.35167904       1.38236439       0.00000000
Si      -0.09335799       2.53447965       2.78452710       0.00000000
Si       2.71269225      -2.71231758       0.00493233       0.00000000
Si       0.00016290      -2.71208952      -2.71381880       0.00000000
Si      -2.71621089      -2.70980892       0.00227646       0.00000000
Si      -2.71464705       0.00257382      -2.71361185       0.00000000
Si       2.71487511       0.00250866      -2.71350838       0.00000000
