10
Lattice="16.28999089631971 0.0 0.0 0.0 16.28999089631971 0.0 0.0 0.0 34.49183129400761" Properties=species:S:1:pos:R:3:initial_magmoms:R:1 pbc="T T T"
Si       1.64261844       0.28567773       1.66340399       0.00000000
Si      -1.85979672       1.20689352       0.80062484       0.00000000
Si       1.29375180       0.88080030      -1.81261573       0.00000000
Si      -0.80524728      -2.31013377       0.33815810       0.00000000
Si       0.08177580      -0.15236037       3.38558208       0.00000000
Si      -2.24586972       0.20316888       2.88865799       0.00000000
Si       2.15788743      -1.03606029      -2.90669723       0.00000000
Si      -3.67948746       0.54509598      -0.61916321       0.00000000
Si       3.38923224      -1.32929658       1.22311551       0.00000000
Si       0.67719159      -3.46107114       1.79616312       0.00000000
