10
Lattice="16.28999089631971 0.0 0.0 0.0 16.28999089631971 0.0 0.0 0.0 34.49183129400761" Properties=species:S:1:pos:R:3:initial_magmoms:R:1 pbc="T T T"
Si      -1.60441839      -0.99751815      -1.36645816       0.00000000
Si      -1.39932729       1.23911514       1.44486017       0.00000000
Si       1.30569237      -1.48787973       1.43439189       0.00000000
Si       1.35552348       1.36407573      -1.73441723       0.00000000
Si      -0.31138335      -1.47543417      -3.34363452       0.00000000
Si       2.04439500      -0.56159775      -3.11843722       0.00000000
Si      -3.41491994       0.74671731      -1.48359249       0.00000000
Si      -2.77797280       2.60237637       0.00053807       0.00000000
Si      -0.04702923       2.57875587       2.81321052       0.00000000
Si       2.80443753       2.60643258      -0.10773874       0.00000000
