10
Lattice="16.28999089631971 0.0 0.0 0.0 16.28999089631971 0.0 0.0 0.0 34.49183129400761" Properties=species:S:1:pos:R:3:initial_magmoms:R:1 pbc="T T T"
Si       1.21816620      -1.38065895       1.54411737       0.00000000
Si       1.77779286       1.11907413      -1.22788371       0.00000000
Si      -1.44891405      -1.24235685      -1.62667848       0.00000000
Si      -1.48310676       1.33063236       1.52639546       0.00000000
Si       2.49153921      -2.69552259       0.02878345       0.00000000
Si      -2.65114863       2.76193692      -0.03789620       0.00000000
Si      -2.80443753      -2.60643258       0.10773874       0.00000000
Si       2.67889050       2.76029163       0.22692533       0.00000000
Si       2.58181839      -0.02534724       2.92198402       0.00000000
Si       0.90745074       2.63335995      -2.75159570       0.00000000
