10
Lattice="16.28999089631971 0.0 0.0 0.0 16.28999089631971 0.0 0.0 0.0 34.49183129400761" Properties=species:S:1:pos:R:3:initial_magmoms:R:1 pbc="T T T"
Si       1.35749457      -1.35742941      -1.35718534       0.00000000
Si      -1.35770634       1.35738054      -1.35749576       0.00000000
Si       1.35837423       1.35780408       1.35804763       0.00000000
Si      -1.35799956      -1.35957969       1.35766822       0.00000000
Si       2.71322982       0.00167787       2.71274956       0.00000000
Si      -2.71454931      -0.00060273      -2.71385329       0.00000000
Si       2.71479366       2.71465287      -0.00003449       0.00000000
Si      -0.00039096      -2.71500543      -2.71495703       0.00000000
Si       2.71494027      -2.71508688       0.00020695       0.00000000
Si       2.71555929       0.00017919      -2.71461212       0.00000000
