10
Lattice="16.28999089631971 0.0 0.0 0.0 16.28999089631971 0.0 0.0 0.0 34.49183129400761" Properties=species:S:1:pos:R:3:initial_magmoms:R:1 pbc="T T T"
Si      -1.35749457       1.35742941       1.35718534       0.00000000
Si       1.35744570      -1.35765747       1.35739229       0.00000000
Si       1.35806472       1.35760860      -1.35742678       0.00000000
Si      -1.35788553      -1.35757602      -1.35777170       0.00000000
Si       0.00193851      -2.71507059       2.71230116       0.00000000
Si       2.71529865       2.71430496       0.00024144       0.00000000
Si      -2.71520091       2.71480995      -0.00031043       0.00000000
Si       2.71521720      -2.71498914      -0.00024144       0.00000000
Si      -2.71549413      -0.00215028       2.71485356       0.00000000
Si       0.00087966       2.71523349       2.71523297       0.00000000
