10
Lattice="16.28999089631971 0.0 0.0 0.0 16.28999089631971 0.0 0.0 0.0 34.49183129400761" Properties=species:S:1:pos:R:3:initial_magmoms:R:1 pbc="T T T"
Si      -1.60204005      -1.21448466       1.29848021       0.00000000
Si       1.19726613      -1.49188707      -1.49660140       0.00000000
Si      -1.49561748       1.21142214      -1.49598054       0.00000000
Si       1.82431710       1.10612358       1.55344397       0.00000000
Si       2.76025905       2.60575233      -0.09443869       0.00000000
Si       2.55728565      -0.14771772      -2.87458532       0.00000000
Si       2.57790879      -2.85747777      -0.15138473       0.00000000
Si      -0.15842025       2.56632841      -2.87027384       0.00000000
Si      -2.73173526      -2.71984356      -0.17321807       0.00000000
Si      -0.50582079      -3.00620547       2.38752590       0.00000000
