10
Lattice="16.28999089631971 0.0 0.0 0.0 16.28999089631971 0.0 0.0 0.0 34.49183129400761" Properties=species:S:1:pos:R:3:initial_magmoms:R:1 pbc="T T T"
Si       0.78464043       1.21722138       1.82630900       0.00000000
Si      -0.71568486       0.82481157      -2.10793496       0.00000000
Si       1.81097559      -1.14119595      -1.08359598       0.00000000
Si      -1.99902735      -1.24023915       0.73688390       0.00000000
Si       2.38138623       2.47700853       0.46188037       0.00000000
Si      -1.90017963      -2.67203241      -1.20411050       0.00000000
Si      -1.51094637      -1.23597117      -3.07294795       0.00000000
Si       1.65498255      -0.29706444       3.35002099       0.00000000
Si       2.76195321       0.46902168      -2.58416394       0.00000000
Si       3.39600888      -1.14557796       1.33266163       0.00000000
