10
Lattice="16.28999089631971 0.0 0.0 0.0 16.28999089631971 0.0 0.0 0.0 34.49183129400761" Properties=species:S:1:pos:R:3:initial_magmoms:R:1 pbc="T T T"
Si      -1.36598166      -1.34822556      -1.36887807       0.00000000
Si       1.34961021       1.36726857      -1.37043021       0.00000000
Si      -1.17752265       1.35146727       1.53557719       0.00000000
Si       1.51044138      -1.20847365       1.41368299       0.00000000
Si       0.84727548       2.16217170       3.02524572       0.00000000
Si       2.70777267      -2.69995021      -0.00317325       0.00000000
Si      -2.69599500       2.71577106       0.00855398       0.00000000
Si       2.62457964       0.41580225       2.76245231       0.00000000
Si      -2.71968066      -2.70562402       0.01776330       0.00000000
Si       0.26125902      -2.69457288       2.72927115       0.00000000
