10
Lattice="16.28999089631971 0.0 0.0 0.0 16.28999089631971 0.0 0.0 0.0 34.49183129400761" Properties=species:S:1:pos:R:3:initial_magmoms:R:1 pbc="T T T"
Si       1.15808868      -1.39936380      -1.43648210       0.00000000
Si       1.42356681       1.32842506       1.32396968       0.00000000
Si      -0.93594195      -1.49962875       1.64788265       0.00000000
Si      -1.55737287       1.31737393      -1.38753816       0.00000000
Si      -0.09309735       1.91560952       3.00561986       0.00000000
Si       2.51382393      -0.04120134      -2.77852551       0.00000000
Si       2.46915675      -2.82543927      -0.16393977       0.00000000
Si      -2.76025905      -2.60575233       0.09443869       0.00000000
Si      -0.20367387       2.67477239      -2.77417954       0.00000000
Si       2.67274917       2.81452430       0.00838152       0.00000000
