10
Lattice="16.28999089631971 0.0 0.0 0.0 16.28999089631971 0.0 0.0 0.0 34.49183129400761" Properties=species:S:1:pos:R:3:initial_magmoms:R:1 pbc="T T T"
Si       1.54921158      -1.74327761      -0.17656378       0.00000000
Si      -0.77722848       0.07791507      -2.20689208       0.00000000
Si       0.91895148       1.92313224       0.97201484       0.00000000
Si      -1.79308917      -0.20864232       1.54506245       0.00000000
Si      -3.27552804       0.94229505       0.08705743       0.00000000
Si       3.48262281      -0.42132456      -0.40565865       0.00000000
Si      -3.02495526      -0.36132849      -1.88473819       0.00000000
Si       2.10797487       0.94149684       2.82943549       0.00000000
Si       1.57962501      -2.80286459       1.89877637       0.00000000
Si      -2.21190507      -2.51849006       1.69944797       0.00000000
