10
Lattice="16.28999089631971 0.0 0.0 0.0 16.28999089631971 0.0 0.0 0.0 34.49183129400761" Properties=species:S:1:pos:R:3:initial_magmoms:R:1 pbc="T T T"
Si       1.99720287       1.07258736       0.62009449       0.00000000
Si      -2.30586579       0.49409525       0.10944264       0.00000000
Si      -0.20971746      -1.67728586       1.68030499       0.00000000
Si      -0.11018556       0.17821260      -2.39652827       0.00000000
Si      -1.59229863      -3.06610610       0.40672790       0.00000000
Si      -0.94224618       2.43461055      -2.64597333       0.00000000
Si      -3.32171019      -1.65346988      -0.37175317       0.00000000
Si      -2.52293004       2.58284955      -0.93283210       0.00000000
Si       3.72454560      -0.49880143      -0.02600686       0.00000000
Si       1.88338464       3.30288384      -0.34040007       0.00000000
