10
Lattice="16.28999089631971 0.0 0.0 0.0 16.28999089631971 0.0 0.0 0.0 34.49183129400761" Properties=species:S:1:pos:R:3:initial_magmoms:R:1 pbc="T T T"
Si       1.51676190       1.10592810      -1.41716666       0.00000000
Si      -1.11413826      -1.62427590      -1.34876932       0.00000000
Si       1.81866447      -0.01360215       1.67447587       0.00000000
Si      -1.77730416       1.74636945       0.26279341       0.00000000
Si      -1.18354995       1.84163337       2.76359054       0.00000000
Si       0.08327448       2.33364024      -2.77390361       0.00000000
Si       1.23944094       2.02611762       2.84095576       0.00000000
Si       2.96950410       2.32681473       0.01545235       0.00000000
Si       2.48256342      -2.86393513       0.08954084       0.00000000
Si      -2.62457964      -0.41580225      -2.76245231       0.00000000
