10
Lattice="16.28999089631971 0.0 0.0 0.0 16.28999089631971 0.0 0.0 0.0 34.49183129400761" Properties=species:S:1:pos:R:3:initial_magmoms:R:1 pbc="T T T"
Si      -0.68997924       1.88884179       1.29985988       0.00000000
Si       2.42299089       0.18448425       0.07736522       0.00000000
Si      -0.57166497      -2.01477978       1.28778773       0.00000000
Si      -0.59375421      -0.09526392      -2.50079713       0.00000000
Si       1.18354995      -1.84163337      -2.76359054       0.00000000
Si       3.00221442      -1.85523552      -1.08911467       0.00000000
Si      -2.91472083      -1.70614944       1.68013253       0.00000000
Si      -1.57014423       1.01128320       3.33898359       0.00000000
Si       1.02721482       3.58744896       1.51188129       0.00000000
Si       0.85520871      -2.25393327       3.23257624       0.00000000
