10
Lattice="16.28999089631971 0.0 0.0 0.0 16.28999089631971 0.0 0.0 0.0 34.49183129400761" Properties=species:S:1:pos:R:3:initial_magmoms:R:1 pbc="T T T"
Si      -1.46499228      -1.38471516       1.21997675       0.00000000
Si       1.01670777       0.57194190       2.07451235       0.00000000
Si       1.07359245      -1.63926270      -1.35739229       0.00000000
Si      -1.35176049       1.62595377      -1.25098493       0.00000000
Si      -0.35328123      -1.40010921      -3.30218079       0.00000000
Si      -3.21160608       0.23025915       1.66026523       0.00000000
Si       2.83674060       1.89190431       1.48477069       0.00000000
Si      -0.50316552       2.00984391       3.28372765       0.00000000
Si       1.09867905      -3.72917196      -0.15769674       0.00000000
Si      -0.27596889      -2.36635056       3.07739740       0.00000000
