10
Lattice="16.28999089631971 0.0 0.0 0.0 16.28999089631971 0.0 0.0 0.0 34.49183129400761" Properties=species:S:1:pos:R:3:initial_magmoms:R:1 pbc="T T T"
Si       1.35338949      -1.74551815      -0.57449626       0.00000000
Si       1.29212280       1.91157774      -0.02362692       0.00000000
Si      -1.08859554      -0.92881019       1.84779742       0.00000000
Si      -1.81959821      -0.04784047      -1.46745578       0.00000000
Si      -3.02031980      -1.04343477       0.32353356       0.00000000
Si       0.54059994       2.46377616      -2.21606691       0.00000000
Si      -1.79553316       2.28111639      -1.72800722       0.00000000
Si       2.65634514      -1.81229086       1.38595154       0.00000000
Si      -0.16299774      -3.55859515      -0.59970981       0.00000000
Si       0.83395026      -2.06345008       2.89507348       0.00000000
