10
Lattice="16.28999089631971 0.0 0.0 0.0 16.28999089631971 0.0 0.0 0.0 34.49183129400761" Properties=species:S:1:pos:R:3:initial_magmoms:R:1 pbc="T T T"
Si      -1.27337301       1.31486364       1.51533392       0.00000000
Si       1.38289068       1.41309234      -1.39735941       0.00000000
Si       1.44093195      -1.39207824       1.50846659       0.00000000
Si      -1.54859256      -1.49437944      -1.60669045       0.00000000
Si      -2.49153921       2.69552259      -0.02878345       0.00000000
Si       2.72758131       2.56976379       0.14311704       0.00000000
Si      -2.62296693      -0.04608441       2.89075165       0.00000000
Si       2.72767905       0.08384463      -2.81745789       0.00000000
Si      -2.74124862      -2.81784420       0.03584048       0.00000000
Si       0.09027918       2.67017535       2.89320057       0.00000000
