10
Lattice="16.28999089631971 0.0 0.0 0.0 16.28999089631971 0.0 0.0 0.0 34.49183129400761" Properties=species:S:1:pos:R:3:initial_magmoms:R:1 pbc="T T T"
Si      -1.29212280      -1.91157774       0.02362692       0.00000000
Si       2.28369510      -0.19893348       0.53314053       0.00000000
Si      -0.67753368       1.47202956       1.70955408       0.00000000
Si      -0.75152286       0.55219842      -2.19243999       0.00000000
Si       0.48663117       2.49250032      -2.46468417       0.00000000
Si      -3.08765596       0.36953865      -1.70438030       0.00000000
Si       2.56642434       1.71576054       1.98541990       0.00000000
Si       0.06126669      -3.65709590      -0.55086935       0.00000000
Si       3.55680747       0.00461007      -1.43286046       0.00000000
Si      -0.12074148       3.69196560       1.04117100       0.00000000
