10
Lattice="16.28999089631971 0.0 0.0 0.0 16.28999089631971 0.0 0.0 0.0 34.49183129400761" Properties=species:S:1:pos:R:3:initial_magmoms:R:1 pbc="T T T"
Si      -1.35777150       1.35733167       1.35763373       0.00000000
Si       1.35729909      -1.35783666       1.35763373       0.00000000
Si       1.35835794       1.35801585      -1.35680593       0.00000000
Si      -1.35780408      -1.35785295      -1.35777170       0.00000000
Si      -2.71327869      -0.00008145       2.71254260       0.00000000
Si      -0.00130320      -2.71358820       2.71547441       0.00000000
Si       2.71446786       2.71520091       0.00058636       0.00000000
Si       2.71557558       0.00078192       2.71440516       0.00000000
Si      -2.71521720       2.71498914       0.00024144       0.00000000
Si       2.71507059      -2.71518462       0.00006898       0.00000000
