10
Lattice="16.28999089631971 0.0 0.0 0.0 16.28999089631971 0.0 0.0 0.0 34.49183129400761" Properties=species:S:1:pos:R:3:initial_magmoms:R:1 pbc="T T T"
Si      -1.35547461      -1.33408584      -1.37091309       0.00000000
Si      -1.33459083       1.38676770       1.34987306       0.00000000
Si       1.36549296       1.37966526      -1.37063716       0.00000000
Si       1.37256282      -1.34223084       1.49166906       0.00000000
Si       0.44525457       2.34328392       2.57412681       0.00000000
Si       2.15128998       0.67044753       2.70060842       0.00000000
Si       2.71792134      -2.66755266      -0.00993365       0.00000000
Si      -2.68592778      -2.70122409       0.01007162       0.00000000
Si       0.00296478      -2.69115687      -2.72802945       0.00000000
Si      -2.70901071       0.02234988      -2.73096125       0.00000000
