10
Lattice="16.28999089631971 0.0 0.0 0.0 16.28999089631971 0.0 0.0 0.0 34.49183129400761" Properties=species:S:1:pos:R:3:initial_magmoms:R:1 pbc="T T T"
Si       1.63937673      -0.12230532       1.70927815       0.00000000
Si      -1.24900317       1.86051348       0.78124042       0.00000000
Si      -1.71719406      -1.69860717      -0.21202141       0.00000000
Si       0.88172883       0.25811505      -2.29056930       0.00000000
Si      -1.64755431       1.05173127       2.97154191       0.00000000
Si      -3.01231422       1.96059924      -0.79362299       0.00000000
Si       1.72740789       2.52092637      -2.05216163       0.00000000
Si      -3.56610906      -0.36650871      -1.03475552       0.00000000
Si       0.65482542       1.11840624       3.50333726       0.00000000
Si       3.70333602       0.34572267       0.77961930       0.00000000
