10
Lattice="16.28999089631971 0.0 0.0 0.0 16.28999089631971 0.0 0.0 0.0 34.49183129400761" Properties=species:S:1:pos:R:3:initial_magmoms:R:1 pbc="T T T"
Si       1.35723393       1.35669636       1.35766822       0.00000000
Si       1.35663120      -1.35684297      -1.35946180       0.00000000
Si      -1.35806472      -1.35760860       1.35742678       0.00000000
Si      -1.35985662       1.35487188      -1.36097944       0.00000000
Si       2.71265967       2.71507291      -0.00013797       0.00000000
Si      -0.00076563       2.71447368       2.71457762       0.00000000
Si       2.71446786      -0.00030951       2.71461212       0.00000000
Si      -0.00061902      -2.71526607       2.71481907       0.00000000
Si       2.71551042      -2.71458189       0.00037941       0.00000000
Si      -2.71555929      -0.00017919       2.71461212       0.00000000
