10
Lattice="16.28999089631971 0.0 0.0 0.0 16.28999089631971 0.0 0.0 0.0 34.49183129400761" Properties=species:S:1:pos:R:3:initial_magmoms:R:1 pbc="T T T"
Si      -1.15808868       1.39936380       1.43648210       0.00000000
Si       1.31106807      -1.42607547       1.27254233       0.00000000
Si       1.35573525       1.35816246      -1.34204341       0.00000000
Si      -1.36106208      -1.35410625      -1.34366453       0.00000000
Si      -2.09403063      -0.10026495       3.08436475       0.00000000
Si      -0.00053757      -2.71239903      -2.69905629       0.00000000
Si       2.71404432       0.00140094      -2.69943570       0.00000000
Si      -2.71591767       0.00201996      -2.69836645       0.00000000
Si      -0.00265527       2.71554856      -2.69902180       0.00000000
Si      -2.72108160      -2.69827560       0.03431939       0.00000000
