10
Lattice="16.28999089631971 0.0 0.0 0.0 16.28999089631971 0.0 0.0 0.0 34.49183129400761" Properties=species:S:1:pos:R:3:initial_magmoms:R:1 pbc="T T T"
Si       0.76185072       0.19088622      -2.30960881       0.00000000
Si       0.39744342       2.41456149       0.37668550       0.00000000
Si      -2.26747026      -0.96674634      -0.55086935       0.00000000
Si       2.00235051      -1.93207545       0.08647107       0.00000000
Si      -0.14040351      -0.35414460       2.90348949       0.00000000
Si       2.55507021      -1.58785146      -2.23534785       0.00000000
Si      -0.88645293      -0.85633272      -3.65792974       0.00000000
Si      -1.75811454      -2.53760733      -2.32668227       0.00000000
Si      -2.73737160      -2.49240258       1.34500971       0.00000000
Si      -0.97406055      -2.59248834       2.91987312       0.00000000
