10
Lattice="16.28999089631971 0.0 0.0 0.0 16.28999089631971 0.0 0.0 0.0 34.49183129400761" Properties=species:S:1:pos:R:3:initial_magmoms:R:1 pbc="T T T"
Si      -1.34732961      -1.35906818       1.38498232       0.00000000
Si       1.36777260       1.35716877       1.38146415       0.00000000
Si       1.28709475      -1.48064534      -1.41025450       0.00000000
Si      -1.29210651       1.48442625      -1.45980894       0.00000000
Si      -2.68120368       2.72668536       0.02970783       0.00000000
Si      -2.67957468      -2.73287491       0.02216791       0.00000000
Si       2.72556854       2.70951570      -0.00889545       0.00000000
Si      -2.70627399      -0.00100998       2.74385776       0.00000000
Si       0.01043930      -2.71478678       2.74420267       0.00000000
Si       0.00760165       2.71521720       2.74382326       0.00000000
