10
Lattice="16.28999089631971 0.0 0.0 0.0 16.28999089631971 0.0 0.0 0.0 34.49183129400761" Properties=species:S:1:pos:R:3:initial_magmoms:R:1 pbc="T T T"
Si      -0.37607094      -0.54195201      -2.21886286       0.00000000
Si      -0.77532255      -1.94668269       1.11843896       0.00000000
Si       2.01285756       0.93566502       0.90945283       0.00000000
Si      -1.77531678       1.71839952       0.01603354       0.00000000
Si      -2.13309405      -0.56156517       2.41388388       0.00000000
Si       0.62376039       2.17792413       2.39896960       0.00000000
Si      -2.57217471      -1.71510731      -1.87818685       0.00000000
Si      -0.74484396       1.48581090      -3.30849491       0.00000000
Si      -0.64493739       3.58619463       1.03040540       0.00000000
Si      -3.57195717       0.70073064       1.06335892       0.00000000
