10
Lattice="16.28999089631971 0.0 0.0 0.0 16.28999089631971 0.0 0.0 0.0 34.49183129400761" Properties=species:S:1:pos:R:3:initial_magmoms:R:1 pbc="T T T"
Si       1.61135793       1.06364578      -1.42475487       0.00000000
Si       1.65203406      -1.12250969       1.35128723       0.00000000
Si      -1.06280847      -1.59874198      -1.46438601       0.00000000
Si      -0.66389895       2.85033298       1.58493503       0.00000000
Si       2.30888988       1.12561294       2.37417755       0.00000000
Si      -2.51639775      -1.12941014       2.42398378       0.00000000
Si       0.11127699       1.46079598       3.37226823       0.00000000
Si      -2.39937039      -0.25181734      -2.85516641       0.00000000
Si       0.31934916       2.46347806      -2.85302791       0.00000000
Si      -2.48256342       2.86393513      -0.08954084       0.00000000
