10
Lattice="16.28999089631971 0.0 0.0 0.0 16.28999089631971 0.0 0.0 0.0 34.49183129400761" Properties=species:S:1:pos:R:3:initial_magmoms:R:1 pbc="T T T"
Si       1.43348742      -1.22771214       1.35673694       0.00000000
Si       1.35518139       1.33275006      -1.36049655       0.00000000
Si      -1.35824391      -1.38217392      -1.35897891       0.00000000
Si      -1.34535852       1.32532182       1.50160271       0.00000000
Si      -1.86057864      -0.58727079       3.03669702       0.00000000
Si      -0.08327448      -2.33364024       2.77390361       0.00000000
Si      -2.71792134       2.66755266       0.00993365       0.00000000
Si       0.00192222       2.69076591      -2.71916504       0.00000000
Si       2.71875213       2.69390988       0.01665956       0.00000000
Si      -2.71495656      -0.02360421      -2.71809579       0.00000000
