10
Lattice="16.28999089631971 0.0 0.0 0.0 16.28999089631971 0.0 0.0 0.0 34.49183129400761" Properties=species:S:1:pos:R:3:initial_magmoms:R:1 pbc="T T T"
Si       0.50679819      -0.02948490       2.39801142       0.00000000
Si      -1.02615597       2.04053427      -0.91044689       0.00000000
Si       0.23006367      -2.22228180      -1.03120286       0.00000000
Si      -2.31883263      -0.89775819       0.09243816       0.00000000
Si       2.26931103       0.45538695      -1.01209437       0.00000000
Si      -1.48677201      -3.15415614       0.34188322       0.00000000
Si       3.57274579      -0.50661900       0.66086386       0.00000000
Si       0.79387686       3.36049668      -1.50018855       0.00000000
Si       2.76786648       0.73205631       2.52490694       0.00000000
Si      -2.04286374       1.46859237      -2.98495924       0.00000000
