10
Lattice="16.28999089631971 0.0 0.0 0.0 16.28999089631971 0.0 0.0 0.0 34.49183129400761" Properties=species:S:1:pos:R:3:initial_magmoms:R:1 pbc="T T T"
Si       0.95157939      -0.47926809       2.11762717       0.00000000
Si       0.80487931      -1.23867531      -1.86404308       0.00000000
Si      -2.26106829      -0.76154121      -0.12689552       0.00000000
Si       0.71555454       2.07845739      -1.01819943       0.00000000
Si       3.21500159      -0.13618440       1.54989131       0.00000000
Si      -0.49855545      -0.27666936      -3.53700131       0.00000000
Si      -2.14725006      -2.99183769       0.83359904       0.00000000
Si      -2.76786648      -0.73205631      -2.52490694       0.00000000
Si       0.13646133       1.96566543      -3.31766763       0.00000000
Si       0.05432715       3.95379477       0.31573840       0.00000000
