10
Lattice="16.28999089631971 0.0 0.0 0.0 16.28999089631971 0.0 0.0 0.0 34.49183129400761" Properties=species:S:1:pos:R:3:initial_magmoms:R:1 pbc="T T T"
Si       1.35187452       1.35550719      -1.37598339       0.00000000
Si      -1.36357074      -1.36115982      -1.37715612       0.00000000
Si       1.48037185      -1.27835775       1.38905581       0.00000000
Si      -1.40059791       1.38482919       1.42582412       0.00000000
Si      -2.70552465       2.69977428      -0.03780307       0.00000000
Si      -2.71875213      -2.69390988      -0.01665956       0.00000000
Si       2.70458376       2.70967860      -0.00541522       0.00000000
Si       2.72632439      -2.71792134      -0.00227646       0.00000000
Si      -0.00296478       2.71181259      -2.73516926       0.00000000
Si       2.71235572      -0.00532683      -2.73482434       0.00000000
