10
Lattice="16.28999089631971 0.0 0.0 0.0 16.28999089631971 0.0 0.0 0.0 34.49183129400761" Properties=species:S:1:pos:R:3:initial_magmoms:R:1 pbc="T T T"
Si       2.06395929       0.46802799      -0.92965885       0.00000000
Si       0.77111973      -2.12509566       0.62937280       0.00000000
Si      -1.63937673       0.12230532      -1.70927815       0.00000000
Si      -0.98455131       1.24071156       1.79405912       0.00000000
Si      -0.04823469      -2.18790990       2.85357978       0.00000000
Si      -2.88837990       1.98281880      -0.92803773       0.00000000
Si      -0.28390212      -0.01141929       3.64275332       0.00000000
Si      -3.28693104       1.17403659       1.26226376       0.00000000
Si       1.86069267       2.55391362      -2.00704629       0.00000000
Si       3.67963800      -0.03199356       0.76709876       0.00000000
