10
Lattice="16.28999089631971 0.0 0.0 0.0 16.28999089631971 0.0 0.0 0.0 34.49183129400761" Properties=species:S:1:pos:R:3:initial_magmoms:R:1 pbc="T T T"
Si       1.50632557       1.31675328      -1.15299358       0.00000000
Si       0.74534962      -2.16088479       0.41345381       0.00000000
Si      -1.79556525      -0.52033518      -1.46407558       0.00000000
Si      -0.46266858       1.42517952       1.84283059       0.00000000
Si      -1.39626477      -2.57497659       1.55854876       0.00000000
Si      -2.77022853      -2.32350786      -0.37130477       0.00000000
Si      -0.66593520       3.51106515       0.76544315       0.00000000
Si       3.66309062       0.14933043       0.51768819       0.00000000
Si      -3.28427577       1.33757190      -1.22735801       0.00000000
Si       1.46991253       3.51109773      -0.30815019       0.00000000
