10
Lattice="16.28999089631971 0.0 0.0 0.0 16.28999089631971 0.0 0.0 0.0 34.49183129400761" Properties=species:S:1:pos:R:3:initial_magmoms:R:1 pbc="T T T"
Si       0.70064919      -1.25213085       1.84869421       0.00000000
Si      -2.30237973      -0.06667497      -0.53179535       0.00000000
Si       0.98455131      -1.24071156      -1.79405912       0.00000000
Si       0.41971185       2.30270553       0.57428931       0.00000000
Si      -1.90382859       0.74210724      -2.72209685       0.00000000
Si       2.70448209      -0.11803734       2.40387503       0.00000000
Si      -1.67736501       2.81328300       1.54840816       0.00000000
Si       0.93631662      -3.42862146       1.05952067       0.00000000
Si       1.96203276       2.09675106       2.36345058       0.00000000
Si      -0.65482542      -1.11840624      -3.50333726       0.00000000
