10
Lattice="16.28999089631971 0.0 0.0 0.0 16.28999089631971 0.0 0.0 0.0 34.49183129400761" Properties=species:S:1:pos:R:3:initial_magmoms:R:1 pbc="T T T"
Si       0.55271970       0.34422399      -2.32181892       0.00000000
Si      -0.84567906      -2.26281132      -0.23840767       0.00000000
Si       1.77266151      -0.08931807       1.75439349       0.00000000
Si      -2.00235051       1.93207545      -0.08647107       0.00000000
Si      -1.24049979       2.12296167      -2.39607988       0.00000000
Si      -1.72740789      -2.52092637       2.05216163       0.00000000
Si      -2.05442964      -2.27836827      -2.28667173       0.00000000
Si      -2.14275402       1.57793085       2.81701842       0.00000000
Si      -0.16964406      -1.53762939      -3.55473012       0.00000000
Si       3.90850924      -0.08928549       0.68080015       0.00000000
