10
Lattice="16.28999089631971 0.0 0.0 0.0 16.28999089631971 0.0 0.0 0.0 34.49183129400761" Properties=species:S:1:pos:R:3:initial_magmoms:R:1 pbc="T T T"
Si       1.08748619      -1.78380387      -1.20859444       0.00000000
Si      -1.53924603      -1.05020001       1.74960744       0.00000000
Si       1.18409404       1.54494360       1.66368479       0.00000000
Si      -0.57798942       1.09942839      -2.37314279       0.00000000
Si      -2.93661852       1.40180337      -1.93413052       0.00000000
Si       2.49972005      -3.03311655       0.20201877       0.00000000
Si       3.04222592      -1.06067448      -2.45085293       0.00000000
Si       2.47842902       0.17488944       3.20052093       0.00000000
Si      -0.03437679      -0.76000995      -3.99270764       0.00000000
Si      -0.24713952      -2.53462626       3.20941638       0.00000000
