10
Lattice="16.28999089631971 0.0 0.0 0.0 16.28999089631971 0.0 0.0 0.0 34.49183129400761" Properties=species:S:1:pos:R:3:initial_magmoms:R:1 pbc="T T T"
Si       1.35229806       1.33964073       1.36835035       0.00000000
Si       1.39932729      -1.23911514      -1.44486017       0.00000000
Si      -1.35912357      -1.37474568       1.36800543       0.00000000
Si      -1.37864551       1.36326123      -1.44432210       0.00000000
Si      -2.01559265      -0.49239783      -2.92845266       0.00000000
Si      -0.20509110      -2.23663329      -2.81131834       0.00000000
Si       2.72065806       2.69794980      -0.02620346       0.00000000
Si      -0.00115659       2.69803125       2.72960572       0.00000000
Si       2.70501966      -2.72699487      -0.01046828       0.00000000
Si      -2.73724847       2.70117522      -0.00869195       0.00000000
