10
Lattice="16.28999089631971 0.0 0.0 0.0 16.28999089631971 0.0 0.0 0.0 34.49183129400761" Properties=species:S:1:pos:R:3:initial_magmoms:R:1 pbc="T T T"
Si      -0.73973609      -2.07107802       0.85391474       0.00000000
Si       2.33434071      -0.34696071      -0.14834945       0.00000000
Si      -0.99988739      -0.08584830      -2.14256477       0.00000000
Si       0.14137439       2.06936757       1.25088145       0.00000000
Si      -1.74233672       2.12894010      -2.18298922       0.00000000
Si       1.40771501       1.11619080       3.07039555       0.00000000
Si       0.94931115      -0.33984198      -3.42190200       0.00000000
Si       1.64335149       3.18673125      -0.19756932       0.00000000
Si       2.84581413      -0.60057972       2.15118774       0.00000000
Si       2.50172046      -1.62714294      -2.07309819       0.00000000
