10
Lattice="16.28999089631971 0.0 0.0 0.0 16.28999089631971 0.0 0.0 0.0 34.49183129400761" Properties=species:S:1:pos:R:3:initial_magmoms:R:1 pbc="T T T"
Si       1.35347909      -1.35550719       1.36335938       0.00000000
Si      -1.36081936       1.36079921       1.36280751       0.00000000
Si       1.37201711       1.35773179      -1.37979130       0.00000000
Si      -1.38261279      -1.35236322      -1.37493829       0.00000000
Si      -0.08416391       2.59494066      -2.79164966       0.00000000
Si       2.70693373      -2.71389771       0.00210400       0.00000000
Si       2.71151122       2.71452066       0.00403555       0.00000000
Si       2.71032205       0.00247608       2.71971691       0.00000000
Si      -2.71837650      -2.71319724       0.00293181       0.00000000
Si      -0.00435432      -2.71298547       2.71978589       0.00000000
