10
Lattice="16.28999089631971 0.0 0.0 0.0 16.28999089631971 0.0 0.0 0.0 34.49183129400761" Properties=species:S:1:pos:R:3:initial_magmoms:R:1 pbc="T T T"
Si      -1.31948674       1.24181928      -1.47331940       0.00000000
Si      -1.14265228      -1.54595358       1.43527489       0.00000000
Si       0.70889193       1.94303862       1.22987592       0.00000000
Si       1.51857009      -1.37572308      -1.43306741       0.00000000
Si       2.71660185       1.16993151       2.07847892       0.00000000
Si       0.33972795      -1.52647074       3.34539908       0.00000000
Si       2.58365916      -1.14554538       2.47379001       0.00000000
Si      -2.53777742      -0.34261128      -2.77328275       0.00000000
Si       0.24327486       2.44288703      -2.88858901       0.00000000
Si      -2.48763680       2.89686929      -0.02800738       0.00000000
