10
Lattice="16.28999089631971 0.0 0.0 0.0 16.28999089631971 0.0 0.0 0.0 34.49183129400761" Properties=species:S:1:pos:R:3:initial_magmoms:R:1 pbc="T T T"
Si       0.03641304      -2.19434445      -0.84484339       0.00000000
Si      -2.13584773      -0.00003258       1.07359334       0.00000000
Si       1.14265228       1.54595358      -1.43527489       0.00000000
Si       1.48238023       0.01948284       1.91012419       0.00000000
Si      -1.93258111      -2.08591821       2.15098079       0.00000000
Si      -1.96973860       1.81385892       2.51166207       0.00000000
Si       0.24367559       1.37811771       3.47915848       0.00000000
Si      -1.46991253      -3.51109773       0.30815019       0.00000000
Si       3.72631144       0.40040820       1.03851513       0.00000000
Si       2.66122237       0.17023050      -2.86834229       0.00000000
