10
Lattice="16.290000149 0.0 0.0 0.0 16.290000149 0.0 0.0 0.0 29.1751946751" Properties=species:S:1:pos:R:3:initial_magmoms:R:1 pbc="T T T"
Si       1.36842517       1.34874685       1.33849958       0.00000000
Si       1.44207226      -1.33218318      -1.28321259       0.00000000
Si      -1.34934958      -1.38773860       1.33587381       0.00000000
Si      -1.37723806       1.34016202      -1.35883469       0.00000000
Si       0.11758122      -2.66865812      -2.62128913       0.00000000
Si       0.03360627       2.74422972      -2.61723378       0.00000000
Si       0.00368154       2.69658146       2.68884429       0.00000000
Si       2.69322572      -0.03448593       2.69949324       0.00000000
Si      -2.71210583      -0.02489112       2.68117122       0.00000000
Si      -2.79723738      -0.08907372      -2.59424081       0.00000000
