10
Lattice="16.290000149 0.0 0.0 0.0 16.290000149 0.0 0.0 0.0 29.1751946751" Properties=species:S:1:pos:R:3:initial_magmoms:R:1 pbc="T T T"
Si      -1.40214547       1.42340392      -1.21899798       0.00000000
Si      -1.32882418      -1.38098476       1.37550248       0.00000000
Si       1.19900917      -1.47113362      -1.43235618       0.00000000
Si       1.30639285       1.44932131       1.36856170       0.00000000
H        3.21649311       1.73413568      -0.51879331       0.00000000
Si      -0.02256165       2.65238669      -2.66290754       0.00000000
Si       2.66936087      -2.68037291       0.02336933       0.00000000
Si       2.53179182      -0.14314023      -2.83393253       0.00000000
Si      -2.90769987       0.13729212      -2.50005161       0.00000000
Si       2.73318510       0.08229708       2.70370905       0.00000000
