10
Lattice="16.290000149 0.0 0.0 0.0 16.290000149 0.0 0.0 0.0 29.1751946751" Properties=species:S:1:pos:R:3:initial_magmoms:R:1 pbc="T T T"
Si      -2.30746223      -0.08516575       0.36623622       0.00000000
H       -0.90704350       1.55655838      -1.49578306       0.00000000
Si       0.97901272      -0.40578553      -2.15067865       0.00000000
Si       1.03105927       2.14136939       0.39424441       0.00000000
Si       0.06680529      -2.05933295       1.29400741       0.00000000
H       -2.92418535       1.21886668      -0.07573881       0.00000000
Si       2.84539062       1.24905205       1.54485573       0.00000000
Si       2.89883811      -1.46703832      -1.37756517       0.00000000
Si       3.54406872      -0.79261765       0.76789112       0.00000000
Si      -3.15108876      -1.74592964      -1.03192664       0.00000000
