10
Lattice="16.290000149 0.0 0.0 0.0 16.290000149 0.0 0.0 0.0 29.1751946751" Properties=species:S:1:pos:R:3:initial_magmoms:R:1 pbc="T T T"
Si      -1.43334082       1.31965291      -1.28280413       0.00000000
Si      -1.38007252      -1.31750263       1.36379448       0.00000000
Si       1.33569856       1.40434462       1.33832453       0.00000000
Si       1.34570062      -1.27917226      -1.46132715       0.00000000
Si      -0.07721460       2.65986380      -2.59817070       0.00000000
Si       2.68539023      -2.61553871      -0.03941569       0.00000000
Si      -0.02427210      -2.68776857       2.70296509       0.00000000
Si      -2.75353131      -2.64425798       0.00011670       0.00000000
Si       2.69935076       0.06502968       2.70211901       0.00000000
Si      -2.74911672       0.06178797       2.68639358       0.00000000
