10
Lattice="16.290000149 0.0 0.0 0.0 16.290000149 0.0 0.0 0.0 29.1751946751" Properties=species:S:1:pos:R:3:initial_magmoms:R:1 pbc="T T T"
Si       1.37112931      -1.34576578      -1.33832453       0.00000000
Si       1.37788966       1.33542163       1.34485977       0.00000000
Si      -1.35055504      -1.36440154       1.35612140       0.00000000
Si      -1.34620561       1.35938422      -1.36834581       0.00000000
Si      -0.00120546       2.70124040       2.65669323       0.00000000
Si      -0.01485648      -2.69589728      -2.66282002       0.00000000
Si      -2.72220563      -0.00762372       2.68840666       0.00000000
Si       2.74207944       0.01241298      -2.67600721       0.00000000
Si      -2.69324201       0.00257382      -2.73076905       0.00000000
Si       2.73502587       2.69101028      -0.01225358       0.00000000
