10
Lattice="16.290000149 0.0 0.0 0.0 16.290000149 0.0 0.0 0.0 29.1751946751" Properties=species:S:1:pos:R:3:initial_magmoms:R:1 pbc="T T T"
H       -0.59240215      -0.09941787      -1.40210151       0.00000000
Si      -1.72079417       0.44414685       1.51778115       0.00000000
Si       0.47846988      -2.03001095       1.05587947       0.00000000
Si       1.89428267       1.50306202       0.31555891       0.00000000
H        1.51674562      -0.85291183      -1.71252558       0.00000000
Si       0.79540813      -0.92921419      -3.03617498       0.00000000
Si      -2.56621259       2.29058579       0.39459451       0.00000000
Si      -0.34293708       1.46680048       3.15439287       0.00000000
Si       2.07177851      -1.21630915       2.61628558       0.00000000
Si       0.92411542       2.95072176       1.83406944       0.00000000
