10
Lattice="16.290000149 0.0 0.0 0.0 16.290000149 0.0 0.0 0.0 29.1751946751" Properties=species:S:1:pos:R:3:initial_magmoms:R:1 pbc="T T T"
Si       0.61615297       0.51232050      -2.18207116       0.00000000
Si      -2.29978964      -0.04996143       0.45306160       0.00000000
Si       0.77493160       2.04600773       0.87802748       0.00000000
Si       1.21538062      -1.87413031       0.95286186       0.00000000
Si       1.70145794       1.00142776       2.71157177       0.00000000
Si       3.02923956      -0.54656208       1.55016562       0.00000000
Si       1.31483107      -1.52934920      -2.95903577       0.00000000
Si      -0.23731272      -0.02528208       3.61431064       0.00000000
Si      -2.44073072       0.36028593       2.81161351       0.00000000
Si      -3.16216596       2.02689956      -0.34222503       0.00000000
