10
Lattice="16.290000149 0.0 0.0 0.0 16.290000149 0.0 0.0 0.0 29.1751946751" Properties=species:S:1:pos:R:3:initial_magmoms:R:1 pbc="T T T"
Si       1.24983397      -1.37037997       1.41285548       0.00000000
Si      -1.28651905       1.44868600       1.32921603       0.00000000
Si       1.90759160       0.78970663      -1.12267316       0.00000000
Si      -1.83930392      -0.88141933      -1.18578494       0.00000000
H        0.69458932      -1.82659772      -1.92436667       0.00000000
Si       1.25200054       1.21132441      -3.25385111       0.00000000
Si       2.66983328       0.05885577       2.64826160       0.00000000
Si      -2.71453304       0.05867658       2.61004209       0.00000000
Si       2.74747143      -2.60608563       0.13282007       0.00000000
Si      -3.47237643       0.85390552      -1.26844148       0.00000000
