10
Lattice="16.290000149 0.0 0.0 0.0 16.290000149 0.0 0.0 0.0 29.1751946751" Properties=species:S:1:pos:R:3:initial_magmoms:R:1 pbc="T T T"
Si       1.39010716       1.43708752      -1.17771508       0.00000000
Si       1.69805333      -1.60023187       0.01330389       0.00000000
Si      -0.95900860       1.26905617       1.75383765       0.00000000
Si      -1.59330862      -0.81370180      -1.56040611       0.00000000
Si      -2.07177851       1.21630915      -2.61628558       0.00000000
Si      -0.17749584       2.71937117      -2.30072668       0.00000000
Si       0.62688808      -3.35999172      -1.05089051       0.00000000
Si      -2.41471559       2.68310963       0.53810729       0.00000000
Si      -0.29963826      -2.31541175      -2.88443480       0.00000000
Si       2.35364438      -2.02184966       2.14448184       0.00000000
