10
Lattice="16.290000149 0.0 0.0 0.0 16.290000149 0.0 0.0 0.0 29.1751946751" Properties=species:S:1:pos:R:3:initial_magmoms:R:1 pbc="T T T"
Si       1.30608334      -1.43047378       1.29750843       0.00000000
Si      -1.35065278      -1.38593692      -1.32414539       0.00000000
Si       1.37582083       1.32848209      -1.35813449       0.00000000
Si      -1.29689578       1.35868375       1.41978167       0.00000000
Si       2.66926313      -0.08640216       2.59522109       0.00000000
Si      -2.66805767       2.69889464       0.06120956       0.00000000
Si       0.00922014       2.68612328      -2.68613100       0.00000000
Si      -2.68904245      -0.02800251      -2.68861089       0.00000000
Si      -2.62759820      -0.03836295       2.76531248       0.00000000
Si       0.03720636      -2.73706212      -2.65911477       0.00000000
