10
Lattice="16.290000149 0.0 0.0 0.0 16.290000149 0.0 0.0 0.0 29.1751946751" Properties=species:S:1:pos:R:3:initial_magmoms:R:1 pbc="T T T"
Si      -2.07080111       0.72111758      -0.84602230       0.00000000
Si      -0.78017698      -1.50037417       1.71027909       0.00000000
Si       0.91442287       2.08233443       0.81165392       0.00000000
Si       1.05178015      -0.66376864      -2.07432717       0.00000000
H       -1.39354435       2.28406979       1.72714235       0.00000000
Si      -1.32248737       1.31039856      -3.00209836       0.00000000
Si      -2.67639815       2.23899536       0.91023690       0.00000000
H        0.44126352      -3.55881117      -0.52795432       0.00000000
Si      -2.31331034      -2.81667135       0.52010620       0.00000000
Si      -3.35620755      -1.26723169      -0.95513752       0.00000000
