10
Lattice="16.290000149 0.0 0.0 0.0 16.290000149 0.0 0.0 0.0 29.1751946751" Properties=species:S:1:pos:R:3:initial_magmoms:R:1 pbc="T T T"
Si       1.38751705       1.35933535      -1.30401450       0.00000000
Si       1.38248344      -1.34586352       1.33613639       0.00000000
Si      -1.31771440       1.37072206       1.38897267       0.00000000
Si      -1.33108849      -1.34511418      -1.41514282       0.00000000
Si       0.01658322       2.71999508      -2.61716084       0.00000000
Si       0.01368360      -2.68949531       2.67942070       0.00000000
Si      -2.67699274      -2.69304653      -0.04618433       0.00000000
Si      -2.66367892       2.73176624       0.03369735       0.00000000
Si       2.71142165       0.00739566      -2.68840666       0.00000000
Si      -2.69282010       0.02221956       2.74001758       0.00000000
