10
Lattice="16.290000149 0.0 0.0 0.0 16.290000149 0.0 0.0 0.0 29.1751946751" Properties=species:S:1:pos:R:3:initial_magmoms:R:1 pbc="T T T"
Si       1.24115140      -1.38932524       1.37164260       0.00000000
Si      -1.36184401       1.34622190       1.33479433       0.00000000
Si      -1.29169927      -1.43808121      -1.31244613       0.00000000
Si       1.45834597       1.29710755      -1.30258492       0.00000000
Si       2.68529249      -0.06296085       2.57923309       0.00000000
Si      -2.64655487      -0.07051941      -2.64794067       0.00000000
Si       0.09360234       2.62352081      -2.68020843       0.00000000
Si       0.03759732       2.69105915       2.62174134       0.00000000
Si      -2.60024240      -2.78367106       0.11106997       0.00000000
Si       0.13382235      -2.80037809      -2.61082982       0.00000000
