10
Lattice="16.290000149 0.0 0.0 0.0 16.290000149 0.0 0.0 0.0 29.1751946751" Properties=species:S:1:pos:R:3:initial_magmoms:R:1 pbc="T T T"
Si      -1.32180319      -1.32655987       1.36489642       0.00000000
Si       1.26141290      -1.42781851      -1.32823954       0.00000000
Si      -1.13999050       1.50039046      -1.38513117       0.00000000
Si       1.50574824       1.38469888       1.16871074       0.00000000
Si       1.94372282       0.33769170      -2.83414639       0.00000000
H       -2.32733603       0.95609269      -2.42581036       0.00000000
Si       0.52868055       2.28661103      -2.83505082       0.00000000
Si       0.10510308       2.73443942       2.53712365       0.00000000
Si       0.12779489      -2.71107956       2.59248942       0.00000000
Si      -2.57965184       0.07426611       2.73019050       0.00000000
