10
Lattice="16.290000149 0.0 0.0 0.0 16.290000149 0.0 0.0 0.0 29.1751946751" Properties=species:S:1:pos:R:3:initial_magmoms:R:1 pbc="T T T"
Si       1.35993808      -1.35289103       1.35311635       0.00000000
Si      -1.36275625       1.36284748       1.34529740       0.00000000
Si       1.34934958       1.38773860      -1.33587381       0.00000000
Si      -1.34666173      -1.38763760      -1.33975411       0.00000000
Si      -2.78112657      -0.04095958      -2.60064768       0.00000000
Si       0.00068418      -2.71683645       2.69558376       0.00000000
Si       2.79142185       0.05555542      -2.61908640       0.00000000
Si      -0.00306252       2.70659330       2.70865425       0.00000000
Si      -2.72756504       0.01535007       2.69502943       0.00000000
Si      -0.02788848       2.72790062      -2.69470851       0.00000000
