10
Lattice="16.290000149 0.0 0.0 0.0 16.290000149 0.0 0.0 0.0 29.1751946751" Properties=species:S:1:pos:R:3:initial_magmoms:R:1 pbc="T T T"
Si      -1.63743823       1.71802487       0.23404341       0.00000000
Si       0.40602825      -0.20507481       2.35274605       0.00000000
Si       1.63462007       1.03444759      -1.42135713       0.00000000
Si      -1.04008393      -1.67325995      -1.40980376       0.00000000
H        1.93392112      -1.57130083       0.23030899       0.00000000
H        0.61309045       2.50748714       1.33937484       0.00000000
H       -1.02692161       0.10220346       2.80863764       0.00000000
Si      -2.36042102      -0.23403843      -2.77689503       0.00000000
Si      -3.48983931       0.87938308      -1.02404933       0.00000000
Si       0.40418748       2.50634684      -2.78725222       0.00000000
