10
Lattice="16.290000149 0.0 0.0 0.0 16.290000149 0.0 0.0 0.0 29.1751946751" Properties=species:S:1:pos:R:3:initial_magmoms:R:1 pbc="T T T"
Si      -1.35779106       1.40649490      -1.31428417       0.00000000
Si       1.17367822       1.46709370       1.45070154       0.00000000
Si      -1.48670849      -1.20045898       1.43517742       0.00000000
Si       1.00725958      -1.24017400      -1.84250107       0.00000000
Si      -1.04873392      -2.24746616      -2.56767971       0.00000000
Si      -2.46377619      -0.29854683      -2.56858414       0.00000000
Si       2.39858849       0.49819707      -2.75886476       0.00000000
Si      -0.12818601      -2.53961102       2.81665498       0.00000000
Si       2.54796779       0.11582190       2.81180898       0.00000000
Si       2.47298492       2.95140594       0.17732508       0.00000000
