10
Lattice="16.290000149 0.0 0.0 0.0 16.290000149 0.0 0.0 0.0 29.1751946751" Properties=species:S:1:pos:R:3:initial_magmoms:R:1 pbc="T T T"
Si      -0.55465822       1.03964410       2.00270206       0.00000000
Si      -1.62667054      -1.68340862      -0.05528699       0.00000000
Si       2.19688571      -0.72239635      -0.45419943       0.00000000
Si       0.04627989       2.15033541      -0.96952089       0.00000000
Si       0.69151051       2.82475607       1.17593540       0.00000000
Si       1.91454743       0.16109181      -2.69666324       0.00000000
Si       1.92482642      -2.74768320       0.74994838       0.00000000
Si      -3.43572393      -0.20753460       0.11594222       0.00000000
Si      -0.21258450      -0.80510068      -3.37557002       0.00000000
Si      -1.26568414      -2.56362248      -2.19029856       0.00000000
