10
Lattice="16.290000149 0.0 0.0 0.0 16.290000149 0.0 0.0 0.0 29.1751946751" Properties=species:S:1:pos:R:3:initial_magmoms:R:1 pbc="T T T"
Si      -1.36480879      -1.34749741       1.34973203       0.00000000
Si      -1.36278883       1.36585135      -1.33549454       0.00000000
Si       1.35969373       1.34374582       1.36335685       0.00000000
Si       1.36275625      -1.36284748      -1.34529740       0.00000000
Si       0.01000206      -2.69390990       2.68613100       0.00000000
Si       2.71210583       0.02489112      -2.68117122       0.00000000
Si       0.00816129       2.72403011      -2.67317721       0.00000000
Si      -2.74877463       0.01571985      -2.65999002       0.00000000
Si      -0.00048870       2.69578325       2.71615227       0.00000000
Si      -2.71461449      -2.71720460      -0.00183804       0.00000000
