10
Lattice="16.290000149 0.0 0.0 0.0 16.290000149 0.0 0.0 0.0 29.1751946751" Properties=species:S:1:pos:R:3:initial_magmoms:R:1 pbc="T T T"
Si      -1.36018243       1.35203743       1.35279543       0.00000000
Si      -1.35969373      -1.34374582      -1.36335685       0.00000000
Si       1.32351364      -1.36420606       1.39323225       0.00000000
Si       1.35609364       1.37772676      -1.35568377       0.00000000
Si       2.69617421       0.02063943       2.70258581       0.00000000
Si       0.01539405       2.71510319       2.68432214       0.00000000
Si       2.69461037      -2.70541390       0.02888344       0.00000000
Si       0.00306252      -2.70659330      -2.70865425       0.00000000
Si      -2.72450252      -2.69124323      -0.01362482       0.00000000
Si      -2.71572221       2.70329294      -0.01566708       0.00000000
