10
Lattice="16.290000149 0.0 0.0 0.0 16.290000149 0.0 0.0 0.0 29.1751946751" Properties=species:S:1:pos:R:3:initial_magmoms:R:1 pbc="T T T"
Si       2.23109471      -0.51839667       0.30065038       0.00000000
Si      -1.05178015       0.66376864       2.07432717       0.00000000
Si      -0.06680529       2.05933295      -1.29400741       0.00000000
Si      -0.64997101      -1.76557538      -1.58610946       0.00000000
Si      -2.37426752       1.97416720      -0.92777119       0.00000000
H       -0.61051663      -2.89504254       1.54637284       0.00000000
Si       2.78575293      -1.55804077      -1.70205168       0.00000000
Si      -3.12258126       1.38488622       1.22830487       0.00000000
Si       3.47726343       1.26671530      -0.52611629       0.00000000
Si       1.15908238      -3.24144939      -1.75733868       0.00000000
