10
Lattice="16.290000149 0.0 0.0 0.0 16.290000149 0.0 0.0 0.0 29.1751946751" Properties=species:S:1:pos:R:3:initial_magmoms:R:1 pbc="T T T"
Si      -1.30618108      -1.31370543      -1.44676873       0.00000000
Si      -1.32427927       1.39519127       1.36329850       0.00000000
Si       1.26151390      -1.39259790       1.43037227       0.00000000
Si       1.36702423       1.35974423      -1.37631063       0.00000000
Si      -2.66056427      -2.66857733      -0.11238285       0.00000000
Si       2.65929365       0.02493022       2.68846501       0.00000000
Si       2.69298137      -2.67750425       0.02301923       0.00000000
Si      -2.67160889       2.72900019      -0.04344186       0.00000000
Si       0.07555302       2.76529431       2.67761184       0.00000000
Si      -2.68099193       0.03270706      -2.78316770       0.00000000
