10
Lattice="16.290000149 0.0 0.0 0.0 16.290000149 0.0 0.0 0.0 29.1751946751" Properties=species:S:1:pos:R:3:initial_magmoms:R:1 pbc="T T T"
Si       1.38831526       1.27356850       1.37832781       0.00000000
Si      -1.63289658       1.18273546      -1.21635063       0.00000000
Si       1.25289649      -1.34266742      -1.48423726       0.00000000
Si      -1.33517240      -1.40807015       1.35195635       0.00000000
Si      -2.96864076      -0.79597828      -1.70019206       0.00000000
Si      -2.68171374      -2.62162205      -0.13071246       0.00000000
Si      -0.03003876       2.65610081       2.66207722       0.00000000
Si       2.60855030      -2.72956252      -0.08487823       0.00000000
Si       2.59177160      -0.12307095       2.81993253       0.00000000
Si      -2.76651460      -0.10052559       2.70437833       0.00000000
