10
Lattice="16.290000149 0.0 0.0 0.0 16.290000149 0.0 0.0 0.0 29.1751946751" Properties=species:S:1:pos:R:3:initial_magmoms:R:1 pbc="T T T"
Si      -1.62051292       0.17145225       1.67421855       0.00000000
Si       0.83880469       1.93202334      -1.01360461       0.00000000
Si       1.77567518      -1.15424425       1.02757953       0.00000000
Si      -1.56261826      -0.78301144      -1.59238213       0.00000000
H       -0.20113263       3.05189080      -0.99604115       0.00000000
Si      -2.04693626       2.46252511       1.37814867       0.00000000
Si       1.11879721       1.19405701      -3.22056221       0.00000000
Si       0.62573149      -2.79327891       2.21209244       0.00000000
Si      -2.47184462      -2.61949718      -0.41959765       0.00000000
Si      -0.41355423      -0.64793476      -3.65127561       0.00000000
