10
Lattice="16.290000149 0.0 0.0 0.0 16.290000149 0.0 0.0 0.0 29.1751946751" Properties=species:S:1:pos:R:3:initial_magmoms:R:1 pbc="T T T"
Si      -1.34715043      -1.36223497      -1.35121997       0.00000000
Si       1.34342002      -1.38406357       1.34182555       0.00000000
Si      -1.38785914       1.35112519       1.33496938       0.00000000
Si       1.34936587       1.34651512      -1.37861547       0.00000000
Si       2.70817994      -0.02524950       2.67209773       0.00000000
Si      -0.03720636       2.73706212       2.65911477       0.00000000
Si      -2.69019904      -0.00490329      -2.71507279       0.00000000
Si       2.71445159       2.70216893      -0.03183014       0.00000000
Si       0.01177767      -2.71810055      -2.70524075       0.00000000
Si      -0.03197727      -2.71928972       2.70436550       0.00000000
