10
Lattice="16.290000149 0.0 0.0 0.0 16.290000149 0.0 0.0 0.0 29.1751946751" Properties=species:S:1:pos:R:3:initial_magmoms:R:1 pbc="T T T"
Si       1.30346065      -1.43055523      -1.29957812       0.00000000
Si       1.41393943       1.29471292       1.34462812       0.00000000
Si      -1.29930670      -1.48431223       1.27337646       0.00000000
Si      -1.28244655       1.49369527      -1.33727247       0.00000000
Si       2.57051315       0.05336604      -2.61990156       0.00000000
Si      -2.68363091      -0.11293857       2.62402459       0.00000000
Si       0.03168405       2.65225637       2.66745187       0.00000000
Si      -2.64108143       0.14819013      -2.68096524       0.00000000
Si      -0.07439643      -2.45320886      -2.93618984       0.00000000
Si      -2.72639217       2.68926725       0.01865141       0.00000000
