10
Lattice="16.290000149 0.0 0.0 0.0 16.290000149 0.0 0.0 0.0 29.1751946751" Properties=species:S:1:pos:R:3:initial_magmoms:R:1 pbc="T T T"
Si      -1.36033393       1.23753502      -1.45698005       0.00000000
Si       1.19610955      -1.40282965      -1.48828503       0.00000000
Si      -1.37432867      -1.43459515       1.29584545       0.00000000
Si       1.48432852       1.39502674       1.27769848       0.00000000
H       -1.12250644       1.41413491       2.26568727       0.00000000
Si       0.00697212       2.75615400       2.52432537       0.00000000
Si       0.07019361      -2.64197738       2.66378280       0.00000000
Si      -2.75271681       2.54762570      -0.12081448       0.00000000
Si       2.55720422      -2.76371256      -0.19430680       0.00000000
Si       2.76208356       2.64741824      -0.21907654       0.00000000
