10
Lattice="16.290000149 0.0 0.0 0.0 16.290000149 0.0 0.0 0.0 29.1751946751" Properties=species:S:1:pos:R:3:initial_magmoms:R:1 pbc="T T T"
Si      -1.34234488      -1.34596416      -1.38981875       0.00000000
Si       1.30854313       1.34558985      -1.42351610       0.00000000
Si       1.42785109      -1.36151495       1.29604967       0.00000000
Si      -1.42092784       1.35469596       1.33508608       0.00000000
Si       0.07995132      -2.64363571       2.67183515       0.00000000
Si      -2.68008784      -2.69333650      -0.01875965       0.00000000
Si       2.60024240       2.78367106      -0.11106997       0.00000000
Si      -0.11000637       2.82266932       2.61479765       0.00000000
Si       2.67939551      -0.04179851       2.76691711       0.00000000
Si       2.73406476      -0.01670702      -2.72189979       0.00000000
