10
Lattice="16.290000149 0.0 0.0 0.0 16.290000149 0.0 0.0 0.0 29.1751946751" Properties=species:S:1:pos:R:3:initial_magmoms:R:1 pbc="T T T"
Si       1.36749664       1.34957764      -1.35064230       0.00000000
Si      -1.34416936      -1.36904419      -1.36333642       0.00000000
Si       1.35189082      -1.31874067       1.40764479       0.00000000
Si      -1.36293544       1.37401264       1.34929440       0.00000000
Si       2.67208130       2.64517022       0.12472396       0.00000000
Si      -2.69982317      -2.68358204       0.03579796       0.00000000
Si       0.08270433      -2.74608678      -2.65540077       0.00000000
Si      -0.00521280       2.76125277      -2.65319220       0.00000000
Si       2.77092903      -2.64947078       0.10538080       0.00000000
Si      -2.71845893      -0.01777239      -2.72444386       0.00000000
