10
Lattice="16.290000149 0.0 0.0 0.0 16.290000149 0.0 0.0 0.0 29.1751946751" Properties=species:S:1:pos:R:3:initial_magmoms:R:1 pbc="T T T"
Si       1.34095860       1.36184401       1.35550872       0.00000000
Si      -1.33592662       1.37412667      -1.35457511       0.00000000
Si       1.36432498      -1.35146728      -1.35110327       0.00000000
Si      -1.35485560      -1.34835589       1.37254703       0.00000000
Si      -2.69493617       0.00873144      -2.68572255       0.00000000
Si       2.66968667       0.00148239       2.71912814       0.00000000
Si      -0.00539199      -2.72233595      -2.67507360       0.00000000
Si      -2.68174127       2.72196128       0.01289544       0.00000000
Si       2.69257412      -2.71207325       0.02252325       0.00000000
Si       2.69187365       2.72644103      -0.00901514       0.00000000
