10
Lattice="16.290000149 0.0 0.0 0.0 16.290000149 0.0 0.0 0.0 29.1751946751" Properties=species:S:1:pos:R:3:initial_magmoms:R:1 pbc="T T T"
Si      -0.72133750      -0.07630236      -1.32364941       0.00000000
H       -2.10914777       0.75349396       0.31042407       0.00000000
H        1.13725378       1.64760320      -1.12356592       0.00000000
H        1.78352696       1.21894813      -1.07647716       0.00000000
Si      -1.51674562       0.85291183       1.71252558       0.00000000
Si       0.25539462      -2.67880907       1.44437636       0.00000000
Si       2.24725439      -2.08010270       0.27188364       0.00000000
Si       0.88387912      -0.86739364      -2.84770323       0.00000000
Si       0.37753704       2.35597385       2.02808448       0.00000000
Si      -1.03827574      -1.17709912       2.76840505       0.00000000
