10
Lattice="16.290000149 0.0 0.0 0.0 16.290000149 0.0 0.0 0.0 29.1751946751" Properties=species:S:1:pos:R:3:initial_magmoms:R:1 pbc="T T T"
H       -1.03993732       1.11986746       0.01756347       0.00000000
Si      -0.83880469      -1.93202334       1.01360461       0.00000000
Si       0.27999252      -0.73796633      -2.20695760       0.00000000
Si       1.87091629       0.89912493       1.12143613       0.00000000
Si       2.55119810      -1.21679459      -2.07561087       0.00000000
Si      -2.40142295      -2.71503478      -0.57877751       0.00000000
Si       0.93823885       1.71472125       3.11532729       0.00000000
H        0.17901081       3.27455393      -1.70634044       0.00000000
Si      -2.88574095       0.53050177       2.39175328       0.00000000
Si       0.93687049      -3.08626759       2.04118415       0.00000000
