10
Lattice="16.290000149 0.0 0.0 0.0 16.290000149 0.0 0.0 0.0 29.1751946751" Properties=species:S:1:pos:R:3:initial_magmoms:R:1 pbc="T T T"
Si      -1.34607529      -1.33049717       1.34636521       0.00000000
Si       1.31584105      -1.32307218      -1.40001840       0.00000000
Si      -1.20345634       1.39663945      -1.44160472       0.00000000
Si       1.42905655       1.40364415       1.24232647       0.00000000
Si       2.30428568       0.46354824      -2.55350056       0.00000000
Si       0.67121317       2.19887309      -2.63615710       0.00000000
Si      -2.64792323      -2.65712708      -0.07941488       0.00000000
Si      -2.70190829       0.06516000       2.63547119       0.00000000
Si       2.69873174      -2.64739107      -0.03454927       0.00000000
Si       0.05139495       2.75296116       2.59261283       0.00000000
