10
Lattice="16.290000149 0.0 0.0 0.0 16.290000149 0.0 0.0 0.0 29.1751946751" Properties=species:S:1:pos:R:3:initial_magmoms:R:1 pbc="T T T"
Si      -1.29291776      -1.43514901      -1.29532029       0.00000000
Si       1.46677116      -1.22662072       1.34981956       0.00000000
Si      -1.35550394       1.28565568       1.41896477       0.00000000
Si       1.45346223       1.37679823      -1.22649601       0.00000000
H        0.33729260      -2.56863980       1.09118146       0.00000000
Si       2.06617801       0.67860883       2.69441675       0.00000000
Si       0.40021598       2.30891204       2.57888298       0.00000000
Si      -2.61918442      -0.06871122      -2.64493562       0.00000000
Si       0.09851703       2.72028341      -2.61129662       0.00000000
Si      -2.59061176       2.77102677       0.05639565       0.00000000
