10
Lattice="16.290000149 0.0 0.0 0.0 16.290000149 0.0 0.0 0.0 29.1751946751" Properties=species:S:1:pos:R:3:initial_magmoms:R:1 pbc="T T T"
H        1.22649040      -1.95615209       0.24612194       0.00000000
H       -1.99212041      -0.61677199      -1.07994901       0.00000000
Si       1.88804360       0.70757245       1.26351933       0.00000000
Si      -0.76121542      -1.87294277       1.27889466       0.00000000
Si       0.61597378      -0.34033068      -2.32847229       0.00000000
Si      -1.78378760       1.54637713       0.62729586       0.00000000
H       -2.63839358      -0.18811692      -1.12703777       0.00000000
H        2.33422670       1.99260911       0.59651603       0.00000000
H       -0.43183161       2.16857369      -2.22055324       0.00000000
H        2.86650246       0.44913159      -1.22314086       0.00000000
