10
Lattice="16.290000149 0.0 0.0 0.0 16.290000149 0.0 0.0 0.0 29.1751946751" Properties=species:S:1:pos:R:3:initial_magmoms:R:1 pbc="T T T"
Si       1.25340148      -1.10566910       1.60346870       0.00000000
Si      -1.81385894      -1.32756822      -0.59730376       0.00000000
Si       1.22275999       1.32175432      -1.49254461       0.00000000
Si      -1.32778162       1.54798984       1.16140615       0.00000000
Si      -0.63726481      -1.11917514       2.94800755       0.00000000
H        3.09920511      -0.51630341      -0.77072112       0.00000000
Si      -0.20357613      -2.86404267      -1.66704145       0.00000000
Si       2.75545353       2.04126734       0.12090201       0.00000000
Si      -3.02923956       0.54656208      -1.55016562       0.00000000
Si      -2.53848701      -1.67080016       1.66561186       0.00000000
