10
Lattice="16.290000149 0.0 0.0 0.0 16.290000149 0.0 0.0 0.0 29.1751946751" Properties=species:S:1:pos:R:3:initial_magmoms:R:1 pbc="T T T"
Si      -1.33841575      -1.41807709       1.31320469       0.00000000
Si       1.33977430      -1.35734797      -1.37744847       0.00000000
Si      -1.43625349       1.35092971      -1.29126494       0.00000000
Si       1.37928570       1.37091754       1.34684369       0.00000000
Si      -2.58326498      -0.04455315       2.71758186       0.00000000
Si      -0.05948784       2.67950954      -2.68260080       0.00000000
Si       2.71093620      -2.69755886      -0.01887635       0.00000000
Si      -0.00109295       2.76265387       2.64817407       0.00000000
Si       2.69888160      -0.00757485      -2.73336564       0.00000000
Si       2.71702866       2.71828988      -0.02421541       0.00000000
