10
Lattice="16.290000149 0.0 0.0 0.0 16.290000149 0.0 0.0 0.0 29.1751946751" Properties=species:S:1:pos:R:3:initial_magmoms:R:1 pbc="T T T"
Si       1.33040431      -1.41952690      -1.28595506       0.00000000
Si      -1.34900749      -1.37367218       1.33669072       0.00000000
Si       1.38598579       1.35013150       1.32449549       0.00000000
Si      -1.30072393       1.34915410      -1.41823539       0.00000000
Si       2.66364308      -0.07990245      -2.61542200       0.00000000
Si       0.01485648       2.69589728       2.66282002       0.00000000
Si      -2.67838553       2.69847110      -0.06794903       0.00000000
Si      -2.70894557      -0.01607823       2.67603638       0.00000000
Si      -2.72978048      -0.05449005      -2.66056186       0.00000000
Si       0.03416013      -2.73292446       2.65815199       0.00000000
