10
Lattice="16.290000149 0.0 0.0 0.0 16.290000149 0.0 0.0 0.0 29.1751946751" Properties=species:S:1:pos:R:3:initial_magmoms:R:1 pbc="T T T"
Si       1.33278265       1.32799339      -1.40157635       0.00000000
Si      -1.19900917       1.47113362       1.43235618       0.00000000
Si       1.47035170      -1.20923929       1.45572551       0.00000000
Si      -1.56893878      -1.12151764      -1.46319436       0.00000000
H        1.82000027      -3.02541141      -0.78446263       0.00000000
Si      -0.17588313       2.63572202      -2.69205356       0.00000000
Si      -2.52783335       0.09014886       2.80785866       0.00000000
Si       2.92169298       2.46194030      -0.06036348       0.00000000
H        2.01748394       3.20526930       0.91356287       0.00000000
Si      -2.60115464       2.89453755       0.21335820       0.00000000
