10
Lattice="16.290000149 0.0 0.0 0.0 16.290000149 0.0 0.0 0.0 29.1751946751" Properties=species:S:1:pos:R:3:initial_magmoms:R:1 pbc="T T T"
Si       1.75571993       1.02325636       1.15991821       0.00000000
Si       1.35550394      -1.28565568      -1.41896477       0.00000000
Si      -1.31926195      -1.29298618       1.47503949       0.00000000
Si      -1.23510781       1.48537108      -1.36256912       0.00000000
H       -3.16156323      -0.80194042      -1.58228751       0.00000000
Si      -2.31024782       0.46599174       2.75723095       0.00000000
Si      -2.50852970       0.01915704      -2.65952322       0.00000000
Si       3.42168195      -0.60704686       1.27545199       0.00000000
Si       2.82227511      -2.51227640      -0.06914521       0.00000000
Si       2.68340285       2.74602162      -0.12583261       0.00000000
