10
Lattice="16.290000149 0.0 0.0 0.0 16.290000149 0.0 0.0 0.0 29.1751946751" Properties=species:S:1:pos:R:3:initial_magmoms:R:1 pbc="T T T"
Si      -1.43417161       1.44438544       1.11478419       0.00000000
Si      -1.35770635      -1.30668607      -1.39369905       0.00000000
Si       1.35316144       1.39080763      -1.34162133       0.00000000
Si       1.32973642      -1.31316949       1.44603935       0.00000000
H       -0.59342842       2.38358540       1.92217853       0.00000000
Si      -2.70228296      -2.63886599      -0.02485727       0.00000000
Si       0.01428633      -2.66732462      -2.71320558       0.00000000
Si       2.71505432      -2.66426210       0.09187269       0.00000000
Si       2.73355977       0.04685004      -2.68006256       0.00000000
Si      -2.72675054       2.73823500      -0.31246633       0.00000000
