10
Lattice="16.290000149 0.0 0.0 0.0 16.290000149 0.0 0.0 0.0 29.1751946751" Properties=species:S:1:pos:R:3:initial_magmoms:R:1 pbc="T T T"
H        0.65129050      -0.84419668       1.07326789       0.00000000
Si      -1.43226568       1.22044681       1.28983536       0.00000000
Si      -1.44414109      -1.32636439      -1.20759048       0.00000000
Si       1.49718133       1.36399429      -1.16184378       0.00000000
Si       0.04750164       2.23743152       2.76230743       0.00000000
Si       0.07656300      -2.64408368      -2.40488212       0.00000000
Si       1.05904549      -3.50898495      -0.42193167       0.00000000
Si       2.77016340      -0.60945778       2.39601286       0.00000000
Si       0.15819219       2.71098182      -2.54492306       0.00000000
Si      -2.68529249       0.06296085      -2.57923309       0.00000000
