10
Lattice="16.290000149 0.0 0.0 0.0 16.290000149 0.0 0.0 0.0 29.1751946751" Properties=species:S:1:pos:R:3:initial_magmoms:R:1 pbc="T T T"
Si      -0.08136855       0.69372595       2.22952170       0.00000000
Si       0.72806527      -2.19208016      -0.39853316       0.00000000
Si       1.93877066       1.02670984      -0.90273887       0.00000000
Si      -2.20341800       0.38556801      -0.80269713       0.00000000
H        2.45252468      -0.25145244       1.49093997       0.00000000
Si       2.62928747      -1.64045514       0.88386252       0.00000000
Si      -2.15264207       2.67911858      -0.13598558       0.00000000
Si       1.45269334      -1.84884823      -2.66144878       0.00000000
Si       1.01224432       2.07128981      -2.73628316       0.00000000
Si       0.23731272       0.02528208      -3.61431064       0.00000000
