10
Lattice="16.290000149 0.0 0.0 0.0 16.290000149 0.0 0.0 0.0 29.1751946751" Properties=species:S:1:pos:R:3:initial_magmoms:R:1 pbc="T T T"
Si       0.06535548       1.07559613       1.06066420       0.00000000
H        1.13512468       1.83905957      -1.95062434       0.00000000
H       -1.21894813      -2.15468646       1.72390390       0.00000000
Si      -2.47220300      -1.39455433      -1.04175868       0.00000000
Si      -1.56269971       0.40288428       2.61552703       0.00000000
Si      -0.47431593      -2.27293720      -2.01982790       0.00000000
Si       2.26501375       1.27407349       1.70631126       0.00000000
Si      -0.39276819       3.20528559       0.17181272       0.00000000
Si      -3.09539325      -0.31662873       1.00208041       0.00000000
Si       2.27329233       0.86653027      -2.23181487       0.00000000
