10
Lattice="16.290000149 0.0 0.0 0.0 16.290000149 0.0 0.0 0.0 29.1751946751" Properties=species:S:1:pos:R:3:initial_magmoms:R:1 pbc="T T T"
Si      -1.37199268       1.36063855       1.31950653       0.00000000
Si      -1.37557648      -1.36306576      -1.33152671       0.00000000
Si       1.35389449       1.37585341      -1.34138793       0.00000000
Si       1.35892810      -1.32374170       1.39366987       0.00000000
Si       2.68078016      -2.69446376       0.01826367       0.00000000
Si      -0.01428633       2.66732462       2.71320558       0.00000000
Si      -0.01539405      -2.71510319      -2.68432214       0.00000000
Si      -2.71656929       0.02845863       2.68834831       0.00000000
Si       2.69970914       0.02801880      -2.70885848       0.00000000
Si      -2.72722295       2.69332346      -0.06085946       0.00000000
