10
Lattice="16.290000149 0.0 0.0 0.0 16.290000149 0.0 0.0 0.0 29.1751946751" Properties=species:S:1:pos:R:3:initial_magmoms:R:1 pbc="T T T"
Si      -0.29548757      -0.23563485       1.60314777       0.00000000
Si       1.12947856       1.34201908       0.25863810       0.00000000
Si      -1.73585101      -1.67039291       0.41405436       0.00000000
Si       2.60683497      -0.01910817      -0.98798879       0.00000000
Si      -0.33729260       2.56863980      -1.09118146       0.00000000
Si       1.12250644      -1.41413491      -2.26568727       0.00000000
Si      -0.25182223      -2.84873007      -0.96984182       0.00000000
Si      -1.63021036       1.13349079      -2.38650175       0.00000000
Si      -2.96628359      -0.19849365      -0.95184073       0.00000000
Si       1.35946079      -1.24497955       2.90853351       0.00000000
