10
Lattice="16.290000149 0.0 0.0 0.0 16.290000149 0.0 0.0 0.0 29.1751946751" Properties=species:S:1:pos:R:3:initial_magmoms:R:1 pbc="T T T"
Si      -1.37492488      -1.31768182       1.36644942       0.00000000
Si      -1.37433844       1.35138583      -1.34474307       0.00000000
Si       1.28980963      -1.36814824      -1.41333396       0.00000000
Si       1.40737456       1.32569650       1.35717171       0.00000000
Si       0.05924673      -2.68872968       2.60315674       0.00000000
Si      -0.01109349       2.70081686      -2.69520448       0.00000000
Si       0.04382010       2.69873174       2.70025179       0.00000000
Si       2.67991679      -0.00926901      -2.72542999       0.00000000
Si       2.61415406      -2.81025309      -0.14421299       0.00000000
Si      -2.73246834      -2.70156620       0.01972243       0.00000000
