10
Lattice="16.290000149 0.0 0.0 0.0 16.290000149 0.0 0.0 0.0 29.1751946751" Properties=species:S:1:pos:R:3:initial_magmoms:R:1 pbc="T T T"
Si      -1.36363591      -1.36142047       1.33000960       0.00000000
Si       1.33636645      -1.44142066      -1.28890175       0.00000000
Si      -1.38546451       1.35666379      -1.33914144       0.00000000
Si       1.38070783       1.34443000       1.35635480       0.00000000
Si       2.69249267      -0.10120977      -2.60426832       0.00000000
Si       0.02059056      -2.69928560       2.68029596       0.00000000
Si      -2.71440272       0.00340461       2.68540162       0.00000000
Si      -0.03549591       2.75236931      -2.64881009       0.00000000
Si      -2.69865029      -2.71257824      -0.06433130       0.00000000
Si      -2.70936911       2.70860348       0.04525073       0.00000000
