10
Lattice="16.290000149 0.0 0.0 0.0 16.290000149 0.0 0.0 0.0 29.1751946751" Properties=species:S:1:pos:R:3:initial_magmoms:R:1 pbc="T T T"
Si       1.30243438      -1.38220651       1.37406414       0.00000000
Si      -1.37266057      -1.38484549      -1.30935356       0.00000000
Si      -1.32185206       1.37072206       1.37540620       0.00000000
Si       1.35485560       1.34835589      -1.37254703       0.00000000
Si      -2.68078016       2.69446376      -0.01826367       0.00000000
Si       2.68084370      -0.01953171       2.70649528       0.00000000
Si      -2.69617421      -0.02063943      -2.70258581       0.00000000
Si      -0.00156384      -2.72605333      -2.67370237       0.00000000
Si       2.69581421       2.71019990      -0.01703831       0.00000000
Si      -2.66413178       0.02070459       2.74456891       0.00000000
