10
Lattice="16.290000149 0.0 0.0 0.0 16.290000149 0.0 0.0 0.0 29.1751946751" Properties=species:S:1:pos:R:3:initial_magmoms:R:1 pbc="T T T"
Si       1.34607529       1.33049717      -1.34636521       0.00000000
Si      -1.35583300       1.39565717       1.28910598       0.00000000
Si       1.37093383      -1.36065973       1.31314634       0.00000000
Si      -1.30184794      -1.32662992      -1.42578009       0.00000000
Si      -2.68026214       0.01177115       2.65085819       0.00000000
Si      -0.01658322      -2.71999508       2.61716084       0.00000000
Si       0.03686427       2.73922380       2.61835702       0.00000000
Si       2.72684828       0.01131503       2.65088736       0.00000000
Si      -2.58086871       0.04549797      -2.81434139       0.00000000
Si      -2.65001813       2.74821588      -0.14316268       0.00000000
