10
Lattice="16.290000149 0.0 0.0 0.0 16.290000149 0.0 0.0 0.0 29.1751946751" Properties=species:S:1:pos:R:3:initial_magmoms:R:1 pbc="T T T"
H        1.36313092       0.58870432       0.27197116       0.00000000
Si      -0.50596740       0.44408169      -2.19905112       0.00000000
Si      -1.39144294       1.33084414       1.32003168       0.00000000
Si      -0.48032694      -2.21596130       0.58283286       0.00000000
H        2.23528124      -1.23763276      -0.18587517       0.00000000
H        2.89645977      -0.28860993       1.44612687       0.00000000
Si       0.57265867      -2.14187438       2.69928901       0.00000000
Si       1.32367654       1.71817148      -2.86051114       0.00000000
Si       0.14169042       2.64714131       2.51020457       0.00000000
Si      -2.79458373      -2.04786479       1.17412653       0.00000000
