10
Lattice="16.290000149 0.0 0.0 0.0 16.290000149 0.0 0.0 0.0 29.1751946751" Properties=species:S:1:pos:R:3:initial_magmoms:R:1 pbc="T T T"
Si       1.81385894       1.32756822       0.59730376       0.00000000
Si      -0.72462808      -0.34323193       2.26291562       0.00000000
Si      -1.21538062       1.87413031      -0.95286186       0.00000000
Si       1.61028280      -1.53647444      -1.06973769       0.00000000
H        0.68204602      -2.57087316       0.95321196       0.00000000
H       -1.28728468      -2.91569989      -0.34374214       0.00000000
Si      -0.28297359      -2.86086775      -1.48382123       0.00000000
Si       0.48607731       2.87555807       1.75870991       0.00000000
Si      -1.45269334       1.84884823       2.66144878       0.00000000
Si      -1.14671827      -1.44033086      -3.08513096       0.00000000
