10
Lattice="16.290000149 0.0 0.0 0.0 16.290000149 0.0 0.0 0.0 29.1751946751" Properties=species:S:1:pos:R:3:initial_magmoms:R:1 pbc="T T T"
Si       0.48032694       2.21596130      -0.58283286       0.00000000
Si       1.05298561       0.07408692       2.11645615       0.00000000
Si      -0.39506508      -1.83218519      -1.47658578       0.00000000
Si      -2.31425679       0.16809651       0.59129367       0.00000000
H        2.71560818       0.97832854      -0.76870803       0.00000000
H       -0.10503792      -2.93457837       1.05086134       0.00000000
H        1.84345787       2.80466562      -0.31086170       0.00000000
Si      -1.29679804      -3.30234141       0.15209029       0.00000000
Si      -2.05001344      -0.82284049      -2.78197151       0.00000000
Si      -2.09845827       2.01447029       2.04264290       0.00000000
