10
Lattice="16.290000149 0.0 0.0 0.0 16.290000149 0.0 0.0 0.0 29.1751946751" Properties=species:S:1:pos:R:3:initial_magmoms:R:1 pbc="T T T"
Si      -1.31694633       1.43424981      -1.27702745       0.00000000
Si       1.31398318       1.38404565       1.36402788       0.00000000
Si      -1.39771215      -1.33504696       1.33508608       0.00000000
Si       1.28009672      -1.34540740      -1.45730097       0.00000000
Si      -2.64143737       0.09777486      -2.61510399       0.00000000
Si       2.64657361      -2.69283476      -0.08481229       0.00000000
Si      -0.02928263      -2.69185736       2.67606556       0.00000000
Si       2.65994770       0.02300148       2.71930319       0.00000000
Si       2.69239738       0.04564458      -2.71261041       0.00000000
Si       2.63841232       2.76793167       0.00227567       0.00000000
