10
Lattice="16.290000149 0.0 0.0 0.0 16.290000149 0.0 0.0 0.0 29.1751946751" Properties=species:S:1:pos:R:3:initial_magmoms:R:1 pbc="T T T"
Si      -1.33468858      -1.44805069       1.25800522       0.00000000
Si       1.34376211      -1.36533007      -1.35075316       0.00000000
Si      -1.38782656       1.34247520      -1.34742719       0.00000000
Si       1.25789752       1.36445041       1.45820541       0.00000000
Si      -2.69920415      -0.07716573       2.51577704       0.00000000
Si       2.63466317       2.69303024       0.06686955       0.00000000
Si      -0.02857266       2.70642062      -2.68989460       0.00000000
Si       2.69057480      -0.01124010      -2.70900435       0.00000000
Si       2.68656197      -2.72259659       0.01975161       0.00000000
Si      -0.02653641      -2.71241534      -2.70798322       0.00000000
