10
Lattice="16.290000149 0.0 0.0 0.0 16.290000149 0.0 0.0 0.0 29.1751946751" Properties=species:S:1:pos:R:3:initial_magmoms:R:1 pbc="T T T"
Si      -1.46988255       1.21230181       1.33610722       0.00000000
Si       1.18734227       1.53233515      -1.30544409       0.00000000
Si       1.43017731      -1.18542331       1.45222449       0.00000000
Si      -0.21579852      -1.84637378      -1.45134923       0.00000000
H       -2.94572398      -1.25555176      -1.43331896       0.00000000
Si       2.09845827      -2.01447029      -2.04264290       0.00000000
Si      -2.61982624      -0.42673284       2.52062012       0.00000000
Si       2.57878522       0.20149101      -2.62547577       0.00000000
Si       3.15144388      -1.94038337       0.07381324       0.00000000
Si      -0.01226800       2.59548572       2.69158676       0.00000000
