10
Lattice="16.290000149 0.0 0.0 0.0 16.290000149 0.0 0.0 0.0 29.1751946751" Properties=species:S:1:pos:R:3:initial_magmoms:R:1 pbc="T T T"
Si      -1.36313092      -0.58870432      -0.27197116       0.00000000
H        0.87215032      -1.82633708      -0.45784633       0.00000000
H        1.53332884      -0.87731425       1.17415571       0.00000000
Si       1.00721071      -1.13986018       2.56105694       0.00000000
Si      -2.75457387       0.74213983       1.04806052       0.00000000
Si      -1.86909833      -0.14462262      -2.47102229       0.00000000
Si       1.99873415      -1.86390182      -1.46862095       0.00000000
H        2.70104492       0.90127684       1.49566636       0.00000000
Si      -1.22144050       2.05843700       2.23823341       0.00000000
Si      -0.03945438       1.12946716      -3.13248230       0.00000000
