10
Lattice="16.290000149 0.0 0.0 0.0 16.290000149 0.0 0.0 0.0 29.1751946751" Properties=species:S:1:pos:R:3:initial_magmoms:R:1 pbc="T T T"
Si      -0.38763684      -0.64762525      -2.22244963       0.00000000
Si      -1.99185977      -0.59870638       1.17249272       0.00000000
Si       0.76717756       2.04288005       1.01048287       0.00000000
Si       1.48520818      -1.86952187       0.35208625       0.00000000
H       -2.24725439       2.08010270      -0.27188364       0.00000000
Si       1.79142761       0.70508008       2.62891844       0.00000000
H        2.75488338       1.95967073      -0.02228985       0.00000000
Si      -2.15063840      -2.13239360      -1.88760592       0.00000000
Si      -1.06533343      -1.64328635       3.00603701       0.00000000
H       -0.46372743       3.29905083      -1.34836080       0.00000000
