10
Lattice="16.290000149 0.0 0.0 0.0 16.290000149 0.0 0.0 0.0 29.1751946751" Properties=species:S:1:pos:R:3:initial_magmoms:R:1 pbc="T T T"
Si       1.39777975       1.41752812       1.25809274       0.00000000
Si      -1.26151390       1.39259790      -1.43037227       0.00000000
Si       1.43146747      -1.28490634      -1.40735304       0.00000000
Si      -1.29174814      -1.59303169       1.27586044       0.00000000
Si      -2.52563420      -2.72652248      -0.34978141       0.00000000
Si       0.28445598      -2.68038920       2.60149376       0.00000000
Si      -2.58579317       2.78778918      -0.06707377       0.00000000
Si       2.86662802       0.12681781       2.53208597       0.00000000
Si      -2.56769498       0.07889247      -2.87714100       0.00000000
Si       2.86772096      -2.63583605      -0.11608810       0.00000000
