10
Lattice="16.290000149 0.0 0.0 0.0 16.290000149 0.0 0.0 0.0 29.1751946751" Properties=species:S:1:pos:R:3:initial_magmoms:R:1 pbc="T T T"
Si      -1.30875015      -1.34099298       1.36636189       0.00000000
Si      -1.46884827       1.29071031      -1.27399323       0.00000000
Si       1.22901685       1.36607273       1.44338441       0.00000000
Si       1.38037864      -1.39173633      -1.30133038       0.00000000
Si       2.60976052      -0.08034244       2.60309839       0.00000000
Si      -0.08602273       2.62816330      -2.65535117       0.00000000
Si       2.63953864       2.65629613       0.05251535       0.00000000
Si      -2.61445882       0.07120652       2.70384034       0.00000000
Si       2.71812160      -0.04436399      -2.67238948       0.00000000
Si      -2.58217204      -2.80720702       0.06940779       0.00000000
