10
Lattice="16.290000149 0.0 0.0 0.0 16.290000149 0.0 0.0 0.0 29.1751946751" Properties=species:S:1:pos:R:3:initial_magmoms:R:1 pbc="T T T"
Si       1.32434443      -1.44210484       1.26912097       0.00000000
Si      -1.34956135      -1.36361962      -1.34485977       0.00000000
Si       1.39010716       1.35887923      -1.31209603       0.00000000
Si      -1.28980963       1.36814824       1.41333396       0.00000000
Si       2.74541889      -0.05281218       2.45316707       0.00000000
Si       0.01982493       2.70037703      -2.66497898       0.00000000
Si      -2.66414807       2.71953407       0.06859088       0.00000000
Si      -2.71616204      -0.00597843      -2.67285628       0.00000000
Si      -0.05611905      -2.77850388       2.60849581       0.00000000
Si       0.02627577      -2.72699489      -2.67767019       0.00000000
