10
Lattice="16.290000149 0.0 0.0 0.0 16.290000149 0.0 0.0 0.0 29.1751946751" Properties=species:S:1:pos:R:3:initial_magmoms:R:1 pbc="T T T"
Si      -1.41801193      -1.32626665       1.23492764       0.00000000
Si       1.36451557      -1.37088496      -1.25777182       0.00000000
Si       1.23388606       1.13349079       1.62564185       0.00000000
Si      -1.39644397       1.45054306      -1.19297371       0.00000000
Si      -0.36978300       1.06264558       3.41218489       0.00000000
Si       2.69920415       0.07716573      -2.51577704       0.00000000
Si      -2.49691493       0.09645309       2.73327811       0.00000000
Si      -0.05509278      -2.67846698      -2.57573206       0.00000000
Si       2.52563420       2.72652248       0.34978141       0.00000000
Si      -0.12543300      -2.62011620       2.66217816       0.00000000
