10
Lattice="16.290000149 0.0 0.0 0.0 16.290000149 0.0 0.0 0.0 29.1751946751" Properties=species:S:1:pos:R:3:initial_magmoms:R:1 pbc="T T T"
Si       1.36109467      -1.36088290       1.29397823       0.00000000
Si      -1.30168504      -1.43216794      -1.33000960       0.00000000
Si       1.37723806       1.24825384      -1.43649906       0.00000000
Si      -1.19610955       1.40282965       1.48828503       0.00000000
Si      -2.55644348       2.64036467       0.03130498       0.00000000
Si      -2.63041311      -0.07180632      -2.69362902       0.00000000
Si       2.74041786       2.59232546      -0.13878640       0.00000000
Si       2.76053601      -0.01604565       2.58092525       0.00000000
Si       0.01268991      -2.66810654       2.68505152       0.00000000
Si      -2.57043822      -0.03176550       2.78413048       0.00000000
