10
Lattice="16.290000149 0.0 0.0 0.0 16.290000149 0.0 0.0 0.0 29.1751946751" Properties=species:S:1:pos:R:3:initial_magmoms:R:1 pbc="T T T"
Si       2.07080111      -0.72111758       0.84602230       0.00000000
Si       0.74831374       0.58928098      -2.15607606       0.00000000
Si      -1.28540644      -1.98834927      -0.10911523       0.00000000
Si      -0.60559705       1.51787778       1.75625919       0.00000000
H        0.67725676       1.56295221       2.57316464       0.00000000
H        0.13159062       1.89331341      -2.59805109       0.00000000
Si      -0.08628813       3.52451258       0.04913103       0.00000000
Si       1.29062413      -2.22149176       2.55630138       0.00000000
Si       3.12258126      -1.38488622      -1.22830487       0.00000000
Si      -1.96568825       0.12757025       3.08793178       0.00000000
