10
Lattice="16.290000149 0.0 0.0 0.0 16.290000149 0.0 0.0 0.0 29.1751946751" Properties=species:S:1:pos:R:3:initial_magmoms:R:1 pbc="T T T"
Si      -1.28285380      -0.04507443      -0.81690545       0.00000000
Si       2.30796722      -0.20173536      -0.91548843       0.00000000
Si       2.16702614       0.20851200       1.44306348       0.00000000
Si       1.44559090       1.87512563      -1.71077507       0.00000000
H        1.29037978       2.67387320      -0.43689854       0.00000000
Si       0.64591480      -1.16647478       2.72461308       0.00000000
Si      -2.64294501      -1.43538196       0.51476713       0.00000000
Si      -0.67725676      -1.56295221      -2.57316464       0.00000000
Si      -0.80080012      -2.60716565       1.44959872       0.00000000
Si      -2.06983674       2.21412053      -0.60669817       0.00000000
