10
Lattice="16.28999089631971 0.0 0.0 0.0 16.28999089631971 0.0 0.0 0.0 34.642051614445585" Properties=species:S:1:pos:R:3:initial_magmoms:R:1 pbc="T T T"
Si       1.35637056       1.34285113       1.38144611       0.00000000
Si      -1.35914638      -1.37658585       1.37961008       0.00000000
Si       1.38609981      -1.28627409      -1.48571182       0.00000000
Si      -1.35300505       1.46057082      -1.39073365       0.00000000
Si       2.70554094       2.69955401      -0.01612242       0.00000000
Si      -2.71241952       2.70282830       0.04625063       0.00000000
Si       2.70648576      -2.71239843       0.01110278       0.00000000
Si      -2.71916174      -2.71831170      -0.00294458       0.00000000
Si      -0.00140094       2.69961917       2.74263701       0.00000000
Si      -2.71486101      -0.01540141       2.74256772       0.00000000
