10
Lattice="16.28999089631971 0.0 0.0 0.0 16.28999089631971 0.0 0.0 0.0 34.642051614445585" Properties=species:S:1:pos:R:3:initial_magmoms:R:1 pbc="T T T"
Si      -2.05815190       1.00595637      -0.39297965       0.00000000
Si      -0.46276632      -2.27784699       0.21737900       0.00000000
Si       0.46454193       1.04420529       2.12262361       0.00000000
Si       1.16198199       0.19561032      -2.13273910       0.00000000
Si      -1.69802073      -2.55160044      -1.81469025       0.00000000
Si      -2.90195273      -0.47734587      -2.02895145       0.00000000
Si       3.26458116       0.89044398      -1.18396206       0.00000000
Si       1.69000605      -3.18021525       0.42654782       0.00000000
Si      -1.48217823       3.28593735      -0.78931959       0.00000000
Si      -1.67231511      -2.50742196       2.20313179       0.00000000
