10
Lattice="16.28999089631971 0.0 0.0 0.0 16.28999089631971 0.0 0.0 0.0 34.642051614445585" Properties=species:S:1:pos:R:3:initial_magmoms:R:1 pbc="T T T"
Si       2.05815190      -1.00595637       0.39297965       0.00000000
Si      -1.39734317      -0.19709271       1.87306214       0.00000000
Si      -0.84380082      -1.48330224      -1.63597180       0.00000000
Si       0.57597367       2.27998098      -0.39633993       0.00000000
Si       0.23824939       0.99383661       3.32955337       0.00000000
Si       2.52269383       0.03824892       2.51560327       0.00000000
Si       1.59538559      -3.28380336       0.61035865       0.00000000
Si      -1.46181182       3.19328050      -1.17724150       0.00000000
Si      -0.15146442      -0.55169343      -3.66336436       0.00000000
Si       3.22013390      -0.81034605      -1.73975945       0.00000000
