10
Lattice="16.28999089631971 0.0 0.0 0.0 16.28999089631971 0.0 0.0 0.0 34.642051614445585" Properties=species:S:1:pos:R:3:initial_magmoms:R:1 pbc="T T T"
Si       1.35281934      -1.35187519       1.35845417       0.00000000
Si      -1.35451350       1.35065929       1.36358120       0.00000000
Si       1.35635427       1.35624676      -1.35692992       0.00000000
Si      -1.35918873      -1.35866975      -1.35630636       0.00000000
Si       2.69154783       0.01828553       2.68074202       0.00000000
Si      -0.02544498      -2.70958153       2.71507231       0.00000000
Si       2.71384884      -0.00161597      -2.71361735       0.00000000
Si      -0.00219915       2.71382278      -2.71375591       0.00000000
Si       2.71324611      -2.71555996       0.00045035       0.00000000
Si       2.71482624       2.71465357      -0.00020785       0.00000000
