10
Lattice="16.28999089631971 0.0 0.0 0.0 16.28999089631971 0.0 0.0 0.0 34.642051614445585" Properties=species:S:1:pos:R:3:initial_magmoms:R:1 pbc="T T T"
Si       2.06487153      -0.08918775      -1.02059005       0.00000000
Si      -1.19860191      -1.59834222      -1.28580975       0.00000000
Si      -0.44846370       2.23997274      -0.68910008       0.00000000
Si       1.06261299      -0.62146350       2.06788914       0.00000000
Si      -0.48861855      -3.37446555       0.14799093       0.00000000
Si       1.23378831      -0.18472860      -3.23972648       0.00000000
Si      -1.42135137       3.10850667       1.25324620       0.00000000
Si       1.09237482      -2.95600783       1.87011756       0.00000000
Si       3.05505918       2.01847761      -0.65861505       0.00000000
Si      -3.38053338      -1.50335523      -0.40004664       0.00000000
