10
Lattice="16.28999089631971 0.0 0.0 0.0 16.28999089631971 0.0 0.0 0.0 34.642051614445585" Properties=species:S:1:pos:R:3:initial_magmoms:R:1 pbc="T T T"
Si       1.50879609      -1.20870056      -1.34529018       0.00000000
Si       1.58099337       0.41845772       1.72212663       0.00000000
Si      -0.70998336       1.77612333      -1.43380068       0.00000000
Si      -2.40262839      -0.29794295       0.41515058       0.00000000
Si      -1.86261489      -1.03648268      -2.53482962       0.00000000
Si       0.48861855       3.37446555      -0.14799093       0.00000000
Si      -2.39300100      -2.39655107      -0.63464274       0.00000000
Si      -2.89191483       1.87111032      -0.54803756       0.00000000
Si       0.22459023      -1.79295770      -3.15966865       0.00000000
Si       1.55123154       2.75300205       1.91989822       0.00000000
