10
Lattice="16.28999089631971 0.0 0.0 0.0 16.28999089631971 0.0 0.0 0.0 34.642051614445585" Properties=species:S:1:pos:R:3:initial_magmoms:R:1 pbc="T T T"
Si       0.02976183      -2.33454433      -0.19777158       0.00000000
Si      -1.39869198       0.70982046       1.76296963       0.00000000
Si      -1.06261299       0.62146350      -2.06788914       0.00000000
Si       2.34549936       0.69463818       0.38761013       0.00000000
Si       1.00225854       0.53227575      -3.08847920       0.00000000
Si      -1.17597510       2.99413458       1.06905431       0.00000000
Si       0.24099426       0.21263337       3.49746349       0.00000000
Si       2.31093198      -2.64043681      -0.79901937       0.00000000
Si      -1.55123154      -2.75300205      -1.91989822       0.00000000
Si       2.39233311       0.68176908       2.81428720       0.00000000
