10
Lattice="16.28999089631971 0.0 0.0 0.0 16.28999089631971 0.0 0.0 0.0 34.642051614445585" Properties=species:S:1:pos:R:3:initial_magmoms:R:1 pbc="T T T"
Si      -1.21917618       1.42869816       1.43388728       0.00000000
Si       1.78033410       1.06955253      -1.19586438       0.00000000
Si      -1.90757529      -0.74616345      -1.26419396       0.00000000
Si       1.46759868      -1.31447268       1.43046464       0.00000000
Si      -2.67362883      -2.55964770      -0.01738686       0.00000000
Si       3.44035026      -0.75471570      -1.28095782       0.00000000
Si      -2.58263289       0.04808808       2.79961629       0.00000000
Si      -3.55687263       0.97788870      -1.03207147       0.00000000
Si       2.78352117      -2.64124431      -0.00588569       0.00000000
Si      -2.56743432       2.87552709       0.04901853       0.00000000
