10
Lattice="16.28999089631971 0.0 0.0 0.0 16.28999089631971 0.0 0.0 0.0 34.642051614445585" Properties=species:S:1:pos:R:3:initial_magmoms:R:1 pbc="T T T"
Si       1.35777150       1.35786924      -1.35682599       0.00000000
Si       1.35793440      -1.35793440       1.35724170       0.00000000
Si      -1.35806472       1.35788553       1.35779597       0.00000000
Si      -1.35808101      -1.35843939      -1.35734562       0.00000000
Si       0.00146610      -2.71407690       2.71372127       0.00000000
Si      -0.00087966       2.71521720       2.71334021       0.00000000
Si      -2.71471221       0.00040725       2.71410233       0.00000000
Si       0.00071676       2.71112841      -2.71777439       0.00000000
Si       2.71459818      -2.71526607      -0.00003464       0.00000000
Si       2.71549413       2.71456560       0.00027714       0.00000000
