10
Lattice="16.28999089631971 0.0 0.0 0.0 16.28999089631971 0.0 0.0 0.0 34.642051614445585" Properties=species:S:1:pos:R:3:initial_magmoms:R:1 pbc="T T T"
Si      -1.35614250       1.35462753       1.35661814       0.00000000
Si       1.35664749       1.35747828      -1.35630636       0.00000000
Si      -1.35731538      -1.35804843      -1.35689528       0.00000000
Si       1.35710361      -1.36011726       1.35734562       0.00000000
Si       0.02557530      -2.70629028       2.71573051       0.00000000
Si       2.71383255       2.71480995      -0.00076213       0.00000000
Si      -0.00058644       2.71443528      -2.71434483       0.00000000
Si       2.71471221      -0.00040725      -2.71410233       0.00000000
Si      -2.71521068      -0.00048870      -2.71361735       0.00000000
Si      -0.00084708      -2.71531494      -2.71392912       0.00000000
