10
Lattice="16.28999089631971 0.0 0.0 0.0 16.28999089631971 0.0 0.0 0.0 34.642051614445585" Properties=species:S:1:pos:R:3:initial_magmoms:R:1 pbc="T T T"
Si      -2.33061030       0.44092143      -0.12623571       0.00000000
Si       0.72682722      -2.24966529       0.29182481       0.00000000
Si       0.82062504       1.45689615       1.70837373       0.00000000
Si       1.11211830       0.52740504      -2.12037188       0.00000000
Si       2.46317832      -0.01889640       2.58914838       0.00000000
Si      -2.42007498       2.85527862       0.03872984       0.00000000
Si      -0.14304249       2.51041932      -2.80150428       0.00000000
Si      -0.84818772      -3.23418076       1.84999052       0.00000000
Si       2.75867892      -2.16549486       1.54070611       0.00000000
Si       1.69085313       3.40635303       0.65466586       0.00000000
