10
Lattice="16.28999089631971 0.0 0.0 0.0 16.28999089631971 0.0 0.0 0.0 34.642051614445585" Properties=species:S:1:pos:R:3:initial_magmoms:R:1 pbc="T T T"
Si      -0.52305561       1.38984651       1.84607596       0.00000000
Si      -0.22271688      -2.28431412       0.69391532       0.00000000
Si      -1.30798926       0.73583559      -1.88369725       0.00000000
Si       2.20253832       0.96629022      -0.48190585       0.00000000
Si       1.17597510      -2.99413458      -1.06905431       0.00000000
Si      -0.47561913       2.99520972      -1.71408967       0.00000000
Si      -0.94341906       3.39617178       0.55105142       0.00000000
Si      -2.38022964       0.14292846       2.73558042       0.00000000
Si       1.76251284       2.51346555      -2.20396320       0.00000000
Si      -0.33510159      -0.13269834      -3.82604353       0.00000000
