10
Lattice="16.28999089631971 0.0 0.0 0.0 16.28999089631971 0.0 0.0 0.0 34.642051614445585" Properties=species:S:1:pos:R:3:initial_magmoms:R:1 pbc="T T T"
Si       1.35821133       1.34451144       1.38636875       0.00000000
Si      -1.35366642      -1.37569050       1.38723480       0.00000000
Si       1.47936006      -1.32385572      -1.38861356       0.00000000
Si      -1.37722176       1.46784303      -1.47630303       0.00000000
Si      -2.70876636      -2.70625770       0.02271827       0.00000000
Si       2.70915732       2.70697446      -0.00436144       0.00000000
Si       2.71353933      -2.72318301       0.04286956       0.00000000
Si      -2.72018565       2.71948518       0.01671826       0.00000000
Si       0.00213399       2.70141957       2.74787143       0.00000000
Si      -2.71145421      -0.01427004       2.74825249       0.00000000
