10
Lattice="16.28999089631971 0.0 0.0 0.0 16.28999089631971 0.0 0.0 0.0 34.642051614445585" Properties=species:S:1:pos:R:3:initial_magmoms:R:1 pbc="T T T"
Si       1.35681039       1.35821133       1.35661814       0.00000000
Si      -1.35822762      -1.35770634       1.35651422       0.00000000
Si      -1.35801585       1.35943308      -1.36167588       0.00000000
Si       1.35778779      -1.36142046      -1.36101768       0.00000000
Si       0.00268785      -2.69198766      -2.72553422       0.00000000
Si       2.71399545       0.00029322       2.71458732       0.00000000
Si      -0.00087966       2.71480995       2.71379056       0.00000000
Si      -0.00099369      -2.71466334       2.71455268       0.00000000
Si       2.71358820       2.71568961      -0.00038106       0.00000000
Si      -2.71526607      -0.00022806       2.71403305       0.00000000
