10
Lattice="16.28999089631971 0.0 0.0 0.0 16.28999089631971 0.0 0.0 0.0 34.642051614445585" Properties=species:S:1:pos:R:3:initial_magmoms:R:1 pbc="T T T"
Si       1.35681039      -1.21121037       1.62010573       0.00000000
Si      -2.01807036       1.20826188       0.68445804       0.00000000
Si       1.65959262       1.48672314      -1.03517436       0.00000000
Si      -0.47708523      -2.10714408      -1.83606440       0.00000000
Si       0.24171102       3.25615923      -0.55264496       0.00000000
Si      -2.75411772      -1.76228478       1.00416971       0.00000000
Si       3.44722464      -1.57108905       0.40430761       0.00000000
Si      -3.67979697       1.53886743      -1.08107511       0.00000000
Si       0.48658230      -3.16066725       2.67381361       0.00000000
Si       2.23834374      -0.15385905       3.58708252       0.00000000
