10
Lattice="16.28999089631971 0.0 0.0 0.0 16.28999089631971 0.0 0.0 0.0 34.642051614445585" Properties=species:S:1:pos:R:3:initial_magmoms:R:1 pbc="T T T"
Si      -1.10843676       0.33663285       2.13069522       0.00000000
Si      -1.66172661       0.33060555      -1.76553315       0.00000000
Si       2.01807036      -1.20826188      -0.68445804       0.00000000
Si      -0.73604736      -2.97054666       0.31971167       0.00000000
Si       2.25978138       2.04789735      -1.23710300       0.00000000
Si      -0.71312733      -2.01578976       2.51279726       0.00000000
Si      -0.14607243       3.31473807      -0.17643207       0.00000000
Si      -3.58407693      -0.21367593      -0.46881115       0.00000000
Si      -1.43995455       2.70894555      -2.21376690       0.00000000
Si       2.47498857       1.93526829       2.11129566       0.00000000
