10
Lattice="16.28999089631971 0.0 0.0 0.0 16.28999089631971 0.0 0.0 0.0 34.642051614445585" Properties=species:S:1:pos:R:3:initial_magmoms:R:1 pbc="T T T"
Si      -2.05594461      -0.93714741      -0.58971197       0.00000000
Si       0.67274442      -1.66962726       1.49508250       0.00000000
Si       1.49674149       0.12492801      -1.87326999       0.00000000
Si      -0.32307957       2.10716037       1.20093667       0.00000000
Si      -3.18308229      -0.64005039       1.51898553       0.00000000
Si      -2.97473319       0.62266896      -2.06986374       0.00000000
Si       2.91087639      -2.15137143       1.00520897       0.00000000
Si       3.50951760       0.96299964      -0.98078631       0.00000000
Si      -1.61989389       3.48146622      -0.41442310       0.00000000
Si       1.77951960       2.80199403       2.14971371       0.00000000
