10
Lattice="16.28999089631971 0.0 0.0 0.0 16.28999089631971 0.0 0.0 0.0 34.642051614445585" Properties=species:S:1:pos:R:3:initial_magmoms:R:1 pbc="T T T"
Si      -0.67274442       1.66962726      -1.49508250       0.00000000
Si       2.23813197      -0.48174417      -0.48987353       0.00000000
Si      -0.46779993       0.40096206       2.26514109       0.00000000
Si      -0.83237013      -2.25937413      -0.16960758       0.00000000
Si       0.47561913      -2.99520972       1.71408967       0.00000000
Si      -2.72868903       0.73247985      -2.08479447       0.00000000
Si      -2.62057230       1.30333032       2.05597227       0.00000000
Si       2.67815745      -2.02891950       1.23218382       0.00000000
Si       2.01504042      -1.70486253      -2.51269333       0.00000000
Si       0.14051754      -3.12790806      -2.11195386       0.00000000
