10
Lattice="16.28999089631971 0.0 0.0 0.0 16.28999089631971 0.0 0.0 0.0 34.642051614445585" Properties=species:S:1:pos:R:3:initial_magmoms:R:1 pbc="T T T"
Si      -1.34296389       1.25164215       1.49302130       0.00000000
Si      -1.98009837      -0.77051700      -1.07280847       0.00000000
Si       1.37722176      -1.46784303       1.47630303       0.00000000
Si       1.05368607       1.64450808      -1.58957710       0.00000000
Si      -0.81621045      -0.25058907      -3.06352794       0.00000000
Si      -2.66334984       2.67776649      -0.00379331       0.00000000
Si       2.69964396       2.66222583      -0.08005436       0.00000000
Si      -2.67980274      -2.72727180       0.11415255       0.00000000
Si       0.02283858       2.59193448       2.86734846       0.00000000
Si      -0.94141539       3.40614126      -1.59442699       0.00000000
