10
Lattice="16.28999089631971 0.0 0.0 0.0 16.28999089631971 0.0 0.0 0.0 34.642051614445585" Properties=species:S:1:pos:R:3:initial_magmoms:R:1 pbc="T T T"
Si      -1.35941448       1.24225748       1.43698428       0.00000000
Si      -1.69344391      -0.99268328      -1.29394860       0.00000000
Si       1.35300505      -1.46057082       1.39073365       0.00000000
Si       0.89216095       1.80380636      -1.44644299       0.00000000
Si      -0.28527374      -1.02498309      -3.33460907       0.00000000
Si      -3.50207374       0.70845047      -1.09450341       0.00000000
Si      -2.68943080       2.59592390       0.09316985       0.00000000
Si       2.61645745       2.70293291      -0.04343769       0.00000000
Si      -0.00382815       2.59424603       2.78087493       0.00000000
Si      -0.89976349       3.51886643      -1.17533307       0.00000000
