10
Lattice="16.28999089631971 0.0 0.0 0.0 16.28999089631971 0.0 0.0 0.0 34.642051614445585" Properties=species:S:1:pos:R:3:initial_magmoms:R:1 pbc="T T T"
Si      -1.39340425      -1.56029204      -1.08911207       0.00000000
Si      -1.61369229       1.64027268       0.58216000       0.00000000
Si       1.63365894       1.19834127      -1.26516307       0.00000000
Si       1.11926961      -0.96715359       1.91827004       0.00000000
Si      -2.83148612       0.17819631       1.94477122       0.00000000
Si      -3.18242159      -1.58242037       0.42675567       0.00000000
Si       3.30120108      -1.06214058       1.03250693       0.00000000
Si       3.47718195      -0.26596683      -1.28404300       0.00000000
Si      -0.50740255       3.26660112       1.84358173       0.00000000
Si       0.56220048       1.66806342      -3.37029244       0.00000000
