10
Lattice="16.28999089631971 0.0 0.0 0.0 16.28999089631971 0.0 0.0 0.0 34.642051614445585" Properties=species:S:1:pos:R:3:initial_magmoms:R:1 pbc="T T T"
Si       2.18193147      -0.09498699      -0.88576311       0.00000000
Si      -0.37797687       1.31786100       1.97421698       0.00000000
Si      -1.11926961       0.96715359      -1.91827004       0.00000000
Si       0.48928644      -2.16905327       0.96318814       0.00000000
Si      -2.73085886       0.72171216       2.01059116       0.00000000
Si       2.89191483      -1.87111032       0.54803756       0.00000000
Si       1.02929994      -2.90759300      -1.98679205       0.00000000
Si       3.38053338       1.50335523       0.40004664       0.00000000
Si       0.51438933       2.16549486      -3.18343311       0.00000000
Si      -2.88621757      -1.63834069       2.09127254       0.00000000
