10
Lattice="16.28999089631971 0.0 0.0 0.0 16.28999089631971 0.0 0.0 0.0 34.642051614445585" Properties=species:S:1:pos:R:3:initial_magmoms:R:1 pbc="T T T"
Si      -0.15535871      -2.36005285       0.08068138       0.00000000
Si      -1.21989687       0.42363774      -1.98408997       0.00000000
Si      -1.19981130       0.81173070       1.88037161       0.00000000
Si       2.35288199       0.59614884      -0.03637417       0.00000000
Si       2.73085886      -0.72171216      -2.01059116       0.00000000
Si      -1.75666866      -2.59816920       1.83637618       0.00000000
Si       0.35888010       2.21048784       2.89334041       0.00000000
Si      -1.27013523      -1.00978941       3.42055809       0.00000000
Si      -3.35769873       1.11581613      -1.41495539       0.00000000
Si      -0.00210304       1.88571411      -3.34670119       0.00000000
