10
Lattice="16.28999089631971 0.0 0.0 0.0 16.28999089631971 0.0 0.0 0.0 34.642051614445585" Properties=species:S:1:pos:R:3:initial_magmoms:R:1 pbc="T T T"
Si      -1.61031537      -1.23910374       1.32818882       0.00000000
Si       1.12415661       1.62119709       1.44291297       0.00000000
Si      -0.59554611       0.49852287      -2.38368626       0.00000000
Si       1.93810275      -1.65335355      -0.06377605       0.00000000
Si       1.55579274       0.96765858      -3.06686254       0.00000000
Si      -0.17251110      -2.47962212       2.86301270       0.00000000
Si       2.53988793       0.27101673       2.88578640       0.00000000
Si       2.92016169      -0.97868691      -2.32392869       0.00000000
Si      -2.48841153      -3.01860935      -0.21076236       0.00000000
Si       1.78098570       3.50772570       0.16784083       0.00000000
