10
Lattice="16.28999089631971 0.0 0.0 0.0 16.28999089631971 0.0 0.0 0.0 34.642051614445585" Properties=species:S:1:pos:R:3:initial_magmoms:R:1 pbc="T T T"
Si       1.86083928       0.55031041       1.54370061       0.00000000
Si      -1.93810275       1.65335355       0.06377605       0.00000000
Si       0.98205894       0.67466664      -2.26015264       0.00000000
Si      -0.78545493      -2.10917123       1.36738632       0.00000000
Si       0.60178518       1.92437028       2.94956245       0.00000000
Si      -0.81394614       3.27455064       1.50668902       0.00000000
Si      -2.11061385      -0.82626857       2.92678875       0.00000000
Si      -3.54841812       0.41424981       1.39196487       0.00000000
Si      -2.43141282      -3.12688898      -0.14213642       0.00000000
Si      -0.38231001       2.62101213      -3.00308649       0.00000000
