10
Lattice="16.28999089631971 0.0 0.0 0.0 16.28999089631971 0.0 0.0 0.0 34.642051614445585" Properties=species:S:1:pos:R:3:initial_magmoms:R:1 pbc="T T T"
Si       1.35640314       1.35695700      -1.35769205       0.00000000
Si      -1.35852084      -1.35847197      -1.35772669       0.00000000
Si       1.35599589      -1.36187658       1.35869667       0.00000000
Si      -1.36150191       1.35804843       1.36423940       0.00000000
Si       2.71417464      -2.71282257      -0.00065820       0.00000000
Si       2.71309950       0.00009774      -2.71479518       0.00000000
Si      -0.00096111       2.71402803      -2.71469125       0.00000000
Si      -2.71498914      -2.71461447      -0.00124711       0.00000000
Si       2.71471221       2.71557558      -0.00103926       0.00000000
Si      -0.00185706      -2.71580364      -2.71500303       0.00000000
