10
Lattice="16.28999089631971 0.0 0.0 0.0 16.28999089631971 0.0 0.0 0.0 34.642051614445585" Properties=species:S:1:pos:R:3:initial_magmoms:R:1 pbc="T T T"
Si       2.01376980       1.00191645       0.58146716       0.00000000
Si      -0.98710884      -1.31756778       1.68689565       0.00000000
Si      -1.64255328       1.47579255      -0.88077465       0.00000000
Si       0.29550060      -2.14659846      -1.04844228       0.00000000
Si      -0.27497520      -3.44046755       0.86892707       0.00000000
Si      -2.46317832       0.01889640      -2.58914838       0.00000000
Si      -1.73635110      -2.23076889      -2.29732358       0.00000000
Si       3.66134040       0.42327936      -1.04047460       0.00000000
Si       2.55632454       0.62017659       2.78754353       0.00000000
Si       2.19178692       3.32511480       0.15523112       0.00000000
