10
Lattice="16.28999089631971 0.0 0.0 0.0 16.28999089631971 0.0 0.0 0.0 34.642051614445585" Properties=species:S:1:pos:R:3:initial_magmoms:R:1 pbc="T T T"
Si       1.23417927      -1.39932729       1.43148312       0.00000000
Si      -1.47936006       1.32385572       1.38861356       0.00000000
Si      -1.18861614      -1.74154761      -1.21841983       0.00000000
Si       1.92489156       0.71509842      -1.43418316       0.00000000
Si       2.62627380       2.58553251       0.04200698       0.00000000
Si       2.45092824      -2.76602571      -0.01902889       0.00000000
Si       2.59775001      -0.04872339       2.78139109       0.00000000
Si       0.47140002      -3.56581584      -1.30351327       0.00000000
Si      -0.12114873       2.66836716       2.77498231       0.00000000
Si      -0.11831427      -2.76040566       2.77647192       0.00000000
