10
Lattice="16.28999089631971 0.0 0.0 0.0 16.28999089631971 0.0 0.0 0.0 34.642051614445585" Properties=species:S:1:pos:R:3:initial_magmoms:R:1 pbc="T T T"
Si      -1.36357074      -1.35060390      -1.34990797       0.00000000
Si       1.35435060      -1.35557235       1.35492068       0.00000000
Si       1.36884870       1.34301276      -1.35476825       0.00000000
Si      -1.35767376       1.35700587       1.35537103       0.00000000
Si       0.02852379       2.63425590      -2.73938412       0.00000000
Si      -2.59775001       0.04872339      -2.78139109       0.00000000
Si       2.71130760      -2.71103067      -0.00755197       0.00000000
Si       2.71322982       0.00094482       2.71240487       0.00000000
Si      -0.00193851      -2.71360449       2.71240487       0.00000000
Si      -2.71606428      -2.71168227      -0.00491917       0.00000000
