10
Lattice="16.28999089631971 0.0 0.0 0.0 16.28999089631971 0.0 0.0 0.0 34.642051614445585" Properties=species:S:1:pos:R:3:initial_magmoms:R:1 pbc="T T T"
Si       1.35736425      -1.35707103       1.35699920       0.00000000
Si      -1.35772263      -1.35669636      -1.35710313       0.00000000
Si       1.35832536       1.35668007      -1.35713777       0.00000000
Si      -1.35856971       1.35827649       1.35755348       0.00000000
Si       2.71406061      -2.71393029      -0.00010393       0.00000000
Si       2.71599912      -0.00032580      -2.71250880       0.00000000
Si       0.00096111      -2.71402803       2.71469125       0.00000000
Si       2.71567332       0.00154755       2.71365199       0.00000000
Si      -2.71637379       0.00065160       2.71306307       0.00000000
Si      -0.00006516      -2.71200807      -2.71742797       0.00000000
