10
Lattice="16.28999089631971 0.0 0.0 0.0 16.28999089631971 0.0 0.0 0.0 34.642051614445585" Properties=species:S:1:pos:R:3:initial_magmoms:R:1 pbc="T T T"
Si      -1.36925595      -1.34830701      -1.39915860       0.00000000
Si       1.35050616       1.36642149      -1.40251889       0.00000000
Si      -1.23994593       1.41952689       1.57943594       0.00000000
Si       1.39145922      -1.52371773       1.56398558       0.00000000
Si      -2.70058878       2.70554094      -0.02639726       0.00000000
Si       2.71440270      -2.69695611      -0.03381066       0.00000000
Si       2.69223201       2.72139111      -0.01794459       0.00000000
Si      -2.73479778      -2.68284897      -0.00997692       0.00000000
Si      -0.00775404      -2.70635544      -2.76339800       0.00000000
Si       2.70695817       0.00922014      -2.76443726       0.00000000
