10
Lattice="16.28999089631971 0.0 0.0 0.0 16.28999089631971 0.0 0.0 0.0 34.642051614445585" Properties=species:S:1:pos:R:3:initial_magmoms:R:1 pbc="T T T"
Si      -1.41788160       1.76943609       0.48252941       0.00000000
Si      -1.65959262      -1.48672314       1.03517436       0.00000000
Si       1.19705436       1.82535966      -1.65817737       0.00000000
Si       2.57002443       1.18420155       0.29854537       0.00000000
Si       2.85338898      -1.13059116       0.15730964       0.00000000
Si       0.10790496       0.27362313      -3.15384878       0.00000000
Si      -0.11875410       3.68080695      -0.79607479       0.00000000
Si      -0.30278223      -2.69793351       2.65528010       0.00000000
Si       1.78763202      -3.05781219       1.43948198       0.00000000
Si       2.42984898       1.57729554       2.70353650       0.00000000
