10
Lattice="16.28999089631971 0.0 0.0 0.0 16.28999089631971 0.0 0.0 0.0 34.642051614445585" Properties=species:S:1:pos:R:3:initial_magmoms:R:1 pbc="T T T"
Si       0.30923307       2.34067752      -0.25742523       0.00000000
Si       2.08257876      -1.15748595       0.12273686       0.00000000
Si      -0.88153335      -1.05735132      -1.96697679       0.00000000
Si      -1.45556037      -0.52978338       1.88809679       0.00000000
Si      -1.75176144      -3.00680820      -0.91326892       0.00000000
Si      -3.11606523      -1.79152533       0.71528948       0.00000000
Si       1.20888090      -1.41723000      -3.18277491       0.00000000
Si       1.13182920       3.07377639       1.88123766       0.00000000
Si      -1.78142553       3.29738922      -0.79132883       0.00000000
Si      -2.09508948       1.54699614       2.94862916       0.00000000
