10
Lattice="16.28999089631971 0.0 0.0 0.0 16.28999089631971 0.0 0.0 0.0 34.642051614445585" Properties=species:S:1:pos:R:3:initial_magmoms:R:1 pbc="T T T"
Si      -0.49976091       2.31326145       0.16787548       0.00000000
Si       2.39298471      -0.20362500       0.21717114       0.00000000
Si      -1.54186479      -0.87720021       1.66129516       0.00000000
Si       0.14017545      -0.39309399      -2.40499114       0.00000000
Si       1.03187376       2.82082527       1.94688439       0.00000000
Si      -2.91661047       2.26043298       0.38653623       0.00000000
Si       0.42354000      -2.70788670      -2.54622686       0.00000000
Si       2.96570853       1.44265869       1.81143389       0.00000000
Si      -3.63252339       0.07951149       1.12739156       0.00000000
Si      -0.71926866      -0.14410134       3.79995805       0.00000000
