10
Lattice="16.28999089631971 0.0 0.0 0.0 16.28999089631971 0.0 0.0 0.0 34.642051614445585" Properties=species:S:1:pos:R:3:initial_magmoms:R:1 pbc="T T T"
Si      -0.42673284       1.96874424       1.18365028       0.00000000
Si      -2.01277611      -0.83807163      -0.89248367       0.00000000
Si       1.21414257       0.68870862      -1.95987517       0.00000000
Si       1.09815777      -1.52300097       1.53176845       0.00000000
Si       3.01562109      -0.82707588      -1.56197634       0.00000000
Si       1.65692106       2.73421134       1.79539461       0.00000000
Si      -0.59864121      -3.11437107       1.98599529       0.00000000
Si      -1.37324700      -2.91485115      -1.95301604       0.00000000
Si      -3.50951760      -0.96299964       0.98078631       0.00000000
Si      -2.73963591       0.84124818      -2.46000274       0.00000000
