10
Lattice="16.28999089631971 0.0 0.0 0.0 16.28999089631971 0.0 0.0 0.0 34.642051614445585" Properties=species:S:1:pos:R:3:initial_magmoms:R:1 pbc="T T T"
Si      -1.93288995       0.73894698       1.18444705       0.00000000
Si      -0.01542663       1.43487207      -1.90929774       0.00000000
Si       0.76245345      -2.18830086      -0.65165200       0.00000000
Si       2.12708304       1.09483461       0.47217143       0.00000000
Si       1.47440790       2.87655336      -0.85853444       0.00000000
Si       1.02604194      -0.09181044      -3.37004995       0.00000000
Si       2.42300718      -1.61143938      -2.17188464       0.00000000
Si       3.67694622      -0.27521955      -0.69828022       0.00000000
Si      -3.03104772       2.26194795      -0.34732140       0.00000000
Si       2.03843286      -3.07276641       1.05703351       0.00000000
