10
Lattice="16.28999089631971 0.0 0.0 0.0 16.28999089631971 0.0 0.0 0.0 34.642051614445585" Properties=species:S:1:pos:R:3:initial_magmoms:R:1 pbc="T T T"
Si      -1.69679898      -1.59137010       0.45422683       0.00000000
Si       0.52129629       0.94830606       2.12103008       0.00000000
Si       1.93288995      -0.73894698      -1.18444705       0.00000000
Si      -1.09815777       1.52300097      -1.53176845       0.00000000
Si      -1.60642206       1.72597437       2.79720866       0.00000000
Si       1.91746332       0.69592509      -3.09374479       0.00000000
Si      -1.91989053      -2.81448846      -1.56859297       0.00000000
Si      -1.52489061       3.49174521      -0.34811817       0.00000000
Si      -3.11093388       0.68492934      -2.42425213       0.00000000
Si      -1.25677350      -3.13854543       2.17628418       0.00000000
