10
Lattice="16.28999089631971 0.0 0.0 0.0 16.28999089631971 0.0 0.0 0.0 34.642051614445585" Properties=species:S:1:pos:R:3:initial_magmoms:R:1 pbc="T T T"
Si      -1.08914940      -1.55173653      -1.49567141       0.00000000
Si      -1.31580846       1.85544729       0.86210258       0.00000000
Si       1.37297007      -0.64115811       1.95672274       0.00000000
Si       1.45287252       1.17434610      -1.64123740       0.00000000
Si      -1.19705436      -1.82535966       1.65817737       0.00000000
Si      -2.61493596      -0.05592357       2.14070678       0.00000000
Si       3.40700463       0.56019681       1.08457396       0.00000000
Si       1.65633462      -2.95595082       1.81548701       0.00000000
Si       3.01954698       2.40973083      -0.45162868       0.00000000
Si       0.14219541       2.47238217      -3.11875637       0.00000000
