10
Lattice="16.28999089631971 0.0 0.0 0.0 16.28999089631971 0.0 0.0 0.0 34.642051614445585" Properties=species:S:1:pos:R:3:initial_magmoms:R:1 pbc="T T T"
Si      -1.67418846       0.35747820      -1.54160680       0.00000000
Si       1.88551863      -0.82769490      -1.05436607       0.00000000
Si       0.33879942       1.89386630       1.29516311       0.00000000
Si      -0.54045333      -1.65527577       1.65069468       0.00000000
Si       1.82568546       1.01878216       3.00540751       0.00000000
Si       0.99118134      -1.14771195       3.42970359       0.00000000
Si      -2.58929550      -1.86502581      -2.01679209       0.00000000
Si      -1.70549784       2.47437674       2.32060305       0.00000000
Si      -2.95730289      -1.70810424       1.86935543       0.00000000
Si       3.93783057       0.02935458      -0.28098184       0.00000000
