10
Lattice="16.28999089631971 0.0 0.0 0.0 16.28999089631971 0.0 0.0 0.0 34.642051614445585" Properties=species:S:1:pos:R:3:initial_magmoms:R:1 pbc="T T T"
Si       1.33846135       1.34241003      -1.37761124       0.00000000
Si      -1.37287233      -1.37303523      -1.37037104       0.00000000
Si       1.63208763      -1.14005565       1.32720702       0.00000000
Si      -1.21891554       1.50908931       1.40816554       0.00000000
Si       0.27644130      -2.60808927       2.46935610       0.00000000
Si       2.68702151       2.71446786      -0.00249423       0.00000000
Si      -2.72126079       2.71046052      -0.00436490       0.00000000
Si       2.69988246      -0.01433520      -2.73312083       0.00000000
Si      -0.01431891       2.70133812      -2.73464508       0.00000000
Si       2.69575784      -2.74651843      -0.01607392       0.00000000
