10
Lattice="16.28999089631971 0.0 0.0 0.0 16.28999089631971 0.0 0.0 0.0 34.642051614445585" Properties=species:S:1:pos:R:3:initial_magmoms:R:1 pbc="T T T"
Si       1.35564633       1.46803362      -1.14214908       0.00000000
Si      -0.20502594       0.54051360       2.24019880       0.00000000
Si      -1.56555045      -1.40043403      -1.08221830       0.00000000
Si       2.41931654      -0.13842916      -2.48543002       0.00000000
Si      -0.27644130       2.60808927      -2.46935610       0.00000000
Si      -0.65158371      -1.55339389       3.23310984       0.00000000
Si      -0.28776285      -2.83509109      -2.47493348       0.00000000
Si      -1.95753672       2.44970160       2.25367457       0.00000000
Si      -3.00618918      -0.12712064      -2.47417135       0.00000000
Si       1.62961317       1.82879196       3.11709355       0.00000000
