10
Lattice="16.28999089631971 0.0 0.0 0.0 16.28999089631971 0.0 0.0 0.0 34.642051614445585" Properties=species:S:1:pos:R:3:initial_magmoms:R:1 pbc="T T T"
Si      -1.34118828       0.85155975       1.73747307       0.00000000
Si       0.93193461       1.76798628      -1.35942415       0.00000000
Si      -0.74352447      -1.18889470      -1.98426318       0.00000000
Si       1.81666080      -0.83816285       1.41443576       0.00000000
Si       2.60556921       0.13983336      -2.02711543       0.00000000
Si       1.38557853      -1.59221718      -2.99896408       0.00000000
Si       3.60567814      -0.81603452      -0.10143198       0.00000000
Si       2.16759627       0.92245383       2.93245131       0.00000000
Si      -2.01388383       3.03347493       1.16691816       0.00000000
Si       0.02979441       1.61463222       3.50158589       0.00000000
