10
Lattice="16.28999089631971 0.0 0.0 0.0 16.28999089631971 0.0 0.0 0.0 34.642051614445585" Properties=species:S:1:pos:R:3:initial_magmoms:R:1 pbc="T T T"
Si       0.71039061      -0.44926191       2.19067142       0.00000000
Si       1.88123436      -1.04165265      -1.10761094       0.00000000
Si      -2.20791402      -1.13626008      -0.51360334       0.00000000
Si      -0.68976747       2.45314368      -0.37922675       0.00000000
Si      -0.23433165       1.73794752      -2.59344400       0.00000000
Si       1.95155829       0.77986746      -2.64779741       0.00000000
Si      -1.32913368      -1.26061631       3.29024990       0.00000000
Si       2.51902044      -2.15039566       1.99122624       0.00000000
Si      -3.57228297       0.81008541      -1.25653720       0.00000000
Si       1.52303355       1.43821152       3.37834469       0.00000000
