10
Lattice="16.28999089631971 0.0 0.0 0.0 16.28999089631971 0.0 0.0 0.0 34.642051614445585" Properties=species:S:1:pos:R:3:initial_magmoms:R:1 pbc="T T T"
Si      -1.33675740      -1.36930482       1.37490223       0.00000000
Si       1.40981805      -1.36842516      -1.30757190       0.00000000
Si       1.37735208       1.34957763       1.36960199       0.00000000
Si      -1.48077729       1.34330598      -1.42326602       0.00000000
Si      -2.70140328      -2.69319312       0.01019516       0.00000000
Si      -2.69752626       2.71000440       0.02724599       0.00000000
Si      -2.69288361      -0.01091430       2.73172822       0.00000000
Si       0.02039508       2.70503595       2.73207464       0.00000000
Si       2.73104014       2.70971118      -0.00333603       0.00000000
Si       0.02205666      -2.72668536       2.73231714       0.00000000
