10
Lattice="16.28999089631971 0.0 0.0 0.0 16.28999089631971 0.0 0.0 0.0 34.642051614445585" Properties=species:S:1:pos:R:3:initial_magmoms:R:1 pbc="T T T"
Si       1.87407232      -1.15007400      -0.77511634       0.00000000
Si       0.84615540       0.98945460       1.96146870       0.00000000
Si      -0.45292716       1.58286672      -1.70435525       0.00000000
Si      -2.09144052      -1.21468014       0.05095849       0.00000000
Si       0.76778258      -2.77640244      -2.03653807       0.00000000
Si      -2.00279034       2.95292088      -0.53390360       0.00000000
Si      -1.70686620       0.24664689      -3.17795966       0.00000000
Si       2.43646991       2.51698419       1.14637541       0.00000000
Si       2.13806969      -0.76931154       2.91073073       0.00000000
Si      -3.36741993      -0.33021459      -1.65772702       0.00000000
