10
Lattice="16.28999089631971 0.0 0.0 0.0 16.28999089631971 0.0 0.0 0.0 34.642051614445585" Properties=species:S:1:pos:R:3:initial_magmoms:R:1 pbc="T T T"
Si      -1.26154647       0.22196754       1.96046408       0.00000000
Si      -1.37562534      -1.31706279      -1.36614471       0.00000000
Si       1.67205447      -0.82127664       1.44578683       0.00000000
Si       1.17170712       1.42708545      -1.50609868       0.00000000
Si       2.99014353       1.16005977       1.65568314       0.00000000
Si      -1.54491102       2.53676025       2.10169980       0.00000000
Si       2.58984936       2.70023040      -0.22794483       0.00000000
Si      -0.05268186      -2.49030117      -2.96394095       0.00000000
Si       2.89062792      -2.57201181       0.13804865       0.00000000
Si      -2.09494287      -3.28504140      -0.20379930       0.00000000
