10
Lattice="16.28999089631971 0.0 0.0 0.0 16.28999089631971 0.0 0.0 0.0 34.642051614445585" Properties=species:S:1:pos:R:3:initial_magmoms:R:1 pbc="T T T"
Si      -1.41814224      -1.27314495      -1.27815385       0.00000000
Si       1.35674523       1.49395590      -1.28054415       0.00000000
Si       0.40029417      -1.54017063       1.88362797       0.00000000
Si      -2.10072582       1.03788477       1.45749585       0.00000000
Si      -0.37289439       0.42782427       2.97994559       0.00000000
Si       2.63804074       2.33634438       0.57710226       0.00000000
Si       1.15048125       2.30469291       2.58984123       0.00000000
Si       0.07369596      -2.49680088      -2.71285522       0.00000000
Si      -2.58984936      -2.70023040       0.22794483       0.00000000
Si      -2.48818347       2.88741879      -0.07870679       0.00000000
