10
Lattice="16.28999089631971 0.0 0.0 0.0 16.28999089631971 0.0 0.0 0.0 34.642051614445585" Properties=species:S:1:pos:R:3:initial_magmoms:R:1 pbc="T T T"
Si       1.13500805      -1.32491457       1.51517490       0.00000000
Si      -1.79266563      -0.96847308      -1.21455101       0.00000000
Si       1.71561623       0.44942481      -1.64269236       0.00000000
Si      -1.02425004       1.71167175       1.43518636       0.00000000
Si      -2.15233254       2.67848325      -0.39713670       0.00000000
Si      -2.72505636       1.03219956      -1.99139945       0.00000000
Si      -2.99436264      -1.95074379       0.52853408       0.00000000
Si       2.75428781       0.06268392       2.46218519       0.00000000
Si       1.39033262       2.78677917      -2.25010644       0.00000000
Si      -0.34345836      -2.13415290       3.20030380       0.00000000
