10
Lattice="16.28999089631971 0.0 0.0 0.0 16.28999089631971 0.0 0.0 0.0 34.642051614445585" Properties=species:S:1:pos:R:3:initial_magmoms:R:1 pbc="T T T"
Si       1.20169701       0.98227071      -1.74308509       0.00000000
Si      -1.89219753      -1.18879533      -0.69564743       0.00000000
Si      -1.04146857       1.52668251       1.46075221       0.00000000
Si       1.39696524      -1.51962894       1.19816531       0.00000000
Si      -0.77605560      -1.83448206      -2.68559191       0.00000000
Si      -0.26358849      -2.09649042       2.71839795       0.00000000
Si      -1.02604194       0.09181044       3.37004995       0.00000000
Si       2.99436264       1.95074379      -0.52853408       0.00000000
Si       1.28241396      -0.82064133      -3.33603143       0.00000000
Si       2.65090428      -0.18340911       2.67176972       0.00000000
