10
Lattice="16.28999089631971 0.0 0.0 0.0 16.28999089631971 0.0 0.0 0.0 34.642051614445585" Properties=species:S:1:pos:R:3:initial_magmoms:R:1 pbc="T T T"
Si      -0.83432493      -1.82236230       1.33088397       0.00000000
Si       1.83151958       0.84836691       1.32923155       0.00000000
Si      -1.81980477       1.82998602       0.02106238       0.00000000
Si       0.43189677      -0.47793231      -2.52530305       0.00000000
Si      -2.14532784      -0.49270734       2.83045955       0.00000000
Si       0.55287113       2.25043092       2.79512117       0.00000000
Si       0.76704301       1.80473652      -3.27502675       0.00000000
Si      -3.48565275       0.79853580       1.44584368       0.00000000
Si      -2.49352659      -2.96131023      -0.00190531       0.00000000
Si       2.55022298      -1.51154910      -2.55197744       0.00000000
