10
Lattice="16.28999089631971 0.0 0.0 0.0 16.28999089631971 0.0 0.0 0.0 34.642051614445585" Properties=species:S:1:pos:R:3:initial_magmoms:R:1 pbc="T T T"
Si      -1.16747172      -1.59171219       1.38671313       0.00000000
Si       1.65920166       1.13894793       1.33278929       0.00000000
Si      -1.69350840       1.88941194      -0.02844114       0.00000000
Si       0.71558712      -1.23145884      -2.14527953       0.00000000
Si      -2.38422069      -0.22501377       2.83722514       0.00000000
Si       0.34819875       2.46860289       2.83236486       0.00000000
Si       2.49352659       2.96131023       0.00190531       0.00000000
Si      -3.14699994      -2.39150232       0.10222875       0.00000000
Si      -1.71408267       2.79360468      -2.27047597       0.00000000
Si      -0.48967740      -3.28851117      -2.25516418       0.00000000
