10
Lattice="16.28999089631971 0.0 0.0 0.0 16.28999089631971 0.0 0.0 0.0 34.642051614445585" Properties=species:S:1:pos:R:3:initial_magmoms:R:1 pbc="T T T"
Si      -1.28888109       1.30955310       1.51075804       0.00000000
Si      -0.92422944      -1.80734292      -1.27139314       0.00000000
Si       1.12115925       1.79930122      -1.17907202       0.00000000
Si       1.44844646      -1.38689802       1.50266565       0.00000000
Si      -0.68747058       3.50043497      -0.97962684       0.00000000
Si      -2.72699487       2.68908057       0.11995163       0.00000000
Si      -2.59007742      -2.83879314       0.15338816       0.00000000
Si      -2.61773784      -0.04184901       2.88774918       0.00000000
Si       2.72709491      -2.78896203       0.03677602       0.00000000
Si       0.09686034       2.67405793       2.88702170       0.00000000
