10
Lattice="16.28999089631971 0.0 0.0 0.0 16.28999089631971 0.0 0.0 0.0 34.642051614445585" Properties=species:S:1:pos:R:3:initial_magmoms:R:1 pbc="T T T"
Si      -1.32885675      -1.35140211       1.37699114       0.00000000
Si       1.28888109      -1.30955310      -1.51075804       0.00000000
Si       1.38574143       1.36450483       1.37626366       0.00000000
Si      -1.43811378       1.37952747      -1.39080640       0.00000000
Si       0.60141051       2.19088187      -2.49038488       0.00000000
Si       2.41004034       0.48974812      -2.68983006       0.00000000
Si      -2.69767287      -2.70304857      -0.01512473       0.00000000
Si      -2.68828983       0.00479412       2.73700421       0.00000000
Si       2.73732755      -2.69645112      -0.00809239       0.00000000
Si       0.02510289      -2.71023246       2.73686564       0.00000000
