10
Lattice="16.28999089631971 0.0 0.0 0.0 16.28999089631971 0.0 0.0 0.0 34.642051614445585" Properties=species:S:1:pos:R:3:initial_magmoms:R:1 pbc="T T T"
Si       1.72783143      -0.61006050       1.52244974       0.00000000
Si      -0.38745765       1.84953402      -1.53620264       0.00000000
Si      -0.24799896       2.33258139       0.73995464       0.00000000
Si      -2.03403456      -1.20135492       0.87214878       0.00000000
Si       2.10072582      -1.03788477      -1.45749585       0.00000000
Si      -1.95413211       0.61414929      -2.72581135       0.00000000
Si       2.50101999      -2.57805540       0.42613212       0.00000000
Si      -3.40700463      -0.56019681      -1.08457396       0.00000000
Si       0.21877470      -1.01188593       3.49431106       0.00000000
Si       0.68258358      -2.31102972      -2.73564970       0.00000000
