10
Lattice="16.28999089631971 0.0 0.0 0.0 16.28999089631971 0.0 0.0 0.0 34.642051614445585" Properties=species:S:1:pos:R:3:initial_magmoms:R:1 pbc="T T T"
Si       1.98490392       0.65502090      -1.00531290       0.00000000
Si      -1.37593485      -1.13378400      -1.53460910       0.00000000
Si      -0.49280508       1.71012650       1.62890482       0.00000000
Si       0.19616418      -1.84599909       1.55137586       0.00000000
Si      -3.05194779      -0.97103061       0.11081999       0.00000000
Si       1.46526921       1.20442898       2.81536111       0.00000000
Si       3.06657916       1.44254533       1.05966631       0.00000000
Si      -2.12402052      -2.12985234       1.93472502       0.00000000
Si      -0.20341323      -3.09063654      -2.19578767       0.00000000
Si       1.03351905      -0.97790499       3.57984233       0.00000000
