10
Lattice="16.28999089631971 0.0 0.0 0.0 16.28999089631971 0.0 0.0 0.0 34.642051614445585" Properties=species:S:1:pos:R:3:initial_magmoms:R:1 pbc="T T T"
Si       1.10628974       1.62632844       1.26142173       0.00000000
Si      -1.21779383      -1.46207637       1.36261122       0.00000000
Si       1.61369229      -1.64027268      -0.58216000       0.00000000
Si      -1.21297199       1.05415848      -1.81184960       0.00000000
Si      -0.76778258       2.77640244       2.03653807       0.00000000
Si      -1.56872930      -3.22269305      -0.15540433       0.00000000
Si       0.22028804      -3.20056472      -1.67127207       0.00000000
Si       3.24735123      -0.44193141      -1.84732308       0.00000000
Si       2.48108592       2.91594258      -0.11438812       0.00000000
Si       0.00210304      -1.88571411       3.34670119       0.00000000
