10
Lattice="16.28999089631971 0.0 0.0 0.0 16.28999089631971 0.0 0.0 0.0 34.642051614445585" Properties=species:S:1:pos:R:3:initial_magmoms:R:1 pbc="T T T"
Si       1.40043501      -1.25144667      -1.38567591       0.00000000
Si      -1.32653868      -1.36327752       1.36519898       0.00000000
Si       1.38798945       1.35314514       1.36305117       0.00000000
Si      -1.40972520       1.31949000      -1.48674415       0.00000000
Si       2.10013938       0.70530813      -2.57263693       0.00000000
Si       0.20253357       2.48987763      -2.73775390       0.00000000
Si      -2.69042566      -2.71549413      -0.01123789       0.00000000
Si      -2.68506771      -0.00646713       2.72434600       0.00000000
Si      -2.68837364       2.72155401      -0.02085453       0.00000000
Si       0.03129309       2.70943425       2.72431135       0.00000000
