10
Lattice="16.28999089631971 0.0 0.0 0.0 16.28999089631971 0.0 0.0 0.0 34.642051614445585" Properties=species:S:1:pos:R:3:initial_magmoms:R:1 pbc="T T T"
Si      -1.44378270       1.22784246       1.31896221       0.00000000
Si       1.34416935       1.36220238      -1.35942415       0.00000000
Si      -1.36956546      -1.35290079      -1.36514009       0.00000000
Si       1.39474980      -1.15758369       1.66434366       0.00000000
Si      -1.89939771      -0.45437697       2.95095017       0.00000000
Si      -0.05398506       2.68095933       2.41129599       0.00000000
Si      -0.28647594      -2.34735642       2.93321343       0.00000000
Si       2.69070075      -2.68389153       0.03252890       0.00000000
Si       2.70040959       0.00728163      -2.72252036       0.00000000
Si      -0.01342296      -2.70752832      -2.72175823       0.00000000
