10
Lattice="16.28999089631971 0.0 0.0 0.0 16.28999089631971 0.0 0.0 0.0 34.642051614445585" Properties=species:S:1:pos:R:3:initial_magmoms:R:1 pbc="T T T"
Si       1.35026564       1.34786718       1.36735718       0.00000000
Si      -1.35514565       1.35544203      -1.36094840       0.00000000
Si       1.36011946      -1.35757602      -1.35973593       0.00000000
Si      -1.34515988      -1.37002158       1.39268054       0.00000000
Si       2.64491990      -0.13791114       2.67980668       0.00000000
Si      -2.71063655       2.71212210       0.00121247       0.00000000
Si      -2.71176056      -2.71741635      -0.00211317       0.00000000
Si      -2.71277054      -0.00081450      -2.71787832       0.00000000
Si       0.00174209       2.71393029      -2.71749726       0.00000000
Si       0.00215775      -2.71599912      -2.71749726       0.00000000
