10
Lattice="16.28999089631971 0.0 0.0 0.0 16.28999089631971 0.0 0.0 0.0 34.642051614445585" Properties=species:S:1:pos:R:3:initial_magmoms:R:1 pbc="T T T"
Si       1.38979764       1.45311687       1.09233378       0.00000000
Si       1.44378270      -1.22784246      -1.31896221       0.00000000
Si      -1.29465427       1.48577832      -1.31244950       0.00000000
Si      -0.45561501      -1.68221943       1.63198796       0.00000000
Si       0.18204075      -0.03083697       3.41092759       0.00000000
Si      -2.39652616      -2.56574016       0.38823369       0.00000000
Si       2.83853250      -2.38542615       0.34538145       0.00000000
Si       0.07421724      -2.58074325      -2.68410230       0.00000000
Si      -2.64491990       0.13791114      -2.67980668       0.00000000
Si       0.40381281       2.34750303       2.96269384       0.00000000
