10
Lattice="16.28999089631971 0.0 0.0 0.0 16.28999089631971 0.0 0.0 0.0 34.642051614445585" Properties=species:S:1:pos:R:3:initial_magmoms:R:1 pbc="T T T"
Si      -1.94237073      -0.47157921       1.29644486       0.00000000
Si      -0.02292003      -0.95475690      -2.19308559       0.00000000
Si      -0.39530943       2.35242261      -0.38210204       0.00000000
Si       1.85347620      -1.13785650       1.10511671       0.00000000
Si       0.71312733       2.01578976      -2.51279726       0.00000000
Si      -0.99297324      -0.94175748       3.43341030       0.00000000
Si       0.72790236      -2.39261004       2.77233566       0.00000000
Si      -2.18869019      -0.45585936      -3.04368700       0.00000000
Si      -3.06834205      -2.20731129       0.09900704       0.00000000
Si      -0.18707436       3.69398556       1.51836197       0.00000000
