10
Lattice="16.28999089631971 0.0 0.0 0.0 16.28999089631971 0.0 0.0 0.0 34.642051614445585" Properties=species:S:1:pos:R:3:initial_magmoms:R:1 pbc="T T T"
Si       0.20823507       1.34156295       1.90046401       0.00000000
Si       0.39530943      -2.35242261       0.38210204       0.00000000
Si       1.10843676      -0.33663285      -2.13069522       0.00000000
Si      -2.24038488       0.73272420      -0.58091289       0.00000000
Si      -1.54706130      -2.82400182       1.67854691       0.00000000
Si      -2.47564017      -0.55030878      -2.59950636       0.00000000
Si       2.54290158       1.52756217       2.15303935       0.00000000
Si      -1.20171330       0.34598331       3.52396467       0.00000000
Si       0.37238940      -3.30717951      -1.81098354       0.00000000
Si       0.96236433       2.97810522      -2.30712728       0.00000000
