10
Lattice="16.28999089631971 0.0 0.0 0.0 16.28999089631971 0.0 0.0 0.0 34.642051614445585" Properties=species:S:1:pos:R:3:initial_magmoms:R:1 pbc="T T T"
Si      -1.13500805       1.32491457      -1.51517490       0.00000000
Si       1.61927976       1.38759849       0.94701029       0.00000000
Si       1.27393176      -1.78238664      -0.89840747       0.00000000
Si      -1.47846641      -0.80923833       1.68512890       0.00000000
Si       2.22332925      -2.25256491       1.23855796       0.00000000
Si      -2.73240545      -2.14545816       0.21152449       0.00000000
Si       2.53806834      -0.17221788       2.42716206       0.00000000
Si       0.58060818       1.77433938      -3.15786726       0.00000000
Si      -2.15925809       3.03658632      -0.07998854       0.00000000
Si       3.02922813       2.38317813      -0.67649036       0.00000000
