10
Lattice="16.28999089631971 0.0 0.0 0.0 16.28999089631971 0.0 0.0 0.0 34.642051614445585" Properties=species:S:1:pos:R:3:initial_magmoms:R:1 pbc="T T T"
Si      -1.59031451      -1.52752959       0.81509329       0.00000000
Si       1.23525441       0.27375345       2.03206924       0.00000000
Si      -1.20393200       2.07425457      -0.21426121       0.00000000
Si       1.12713768      -0.29709702      -2.10869750       0.00000000
Si       1.69802073       2.55160044       1.81469025       0.00000000
Si       3.18308229       0.64005039      -1.51898553       0.00000000
Si      -2.43646991      -2.51698419      -1.14637541       0.00000000
Si      -3.17023667      -0.11476305       1.91234624       0.00000000
Si      -0.29840022      -3.28629573       1.76435532       0.00000000
Si      -0.51159559       3.00586338      -2.24165377       0.00000000
