10
Lattice="16.28999089631971 0.0 0.0 0.0 16.28999089631971 0.0 0.0 0.0 34.433804113860816" Properties=species:S:1:pos:R:3:initial_magmoms:R:1 pbc="T T T"
Si       1.07336439       1.70543268       1.30794468       0.00000000
Si      -1.80229302      -1.16879610       1.18791870       0.00000000
Si       1.21358871      -2.12829664      -0.37223793       0.00000000
Si      -0.05585841       1.41643179      -2.08098198       0.00000000
Si      -1.50086612      -0.43525251      -2.67451780       0.00000000
Si       0.39791583      -2.02045685      -2.65072403       0.00000000
Si       2.36051874       0.30388995       2.65041959       0.00000000
Si      -0.39786696      -2.41284941       2.66352510       0.00000000
Si       2.45052099       2.88622962      -0.23815263       0.00000000
Si       1.95949152       0.97580358      -3.30902986       0.00000000
