10
Lattice="16.28999089631971 0.0 0.0 0.0 16.28999089631971 0.0 0.0 0.0 34.433804113860816" Properties=species:S:1:pos:R:3:initial_magmoms:R:1 pbc="T T T"
Si      -1.34141925      -1.35331518      -1.36402704       0.00000000
Si       1.29999087      -1.38024748       1.41147685       0.00000000
Si       1.37376828       1.35936303      -1.36165111       0.00000000
Si      -1.26933097       1.48567569       1.39150524       0.00000000
Si       2.33388459       0.32107101       2.71255887       0.00000000
Si       0.61209675       2.19388344       2.79705947       0.00000000
Si      -2.70302318      -2.70798022       0.02809800       0.00000000
Si       2.72681568      -2.69344954      -0.00519951       0.00000000
Si      -2.69986292       0.00128854      -2.72275128       0.00000000
Si      -2.69368901       2.73254487      -0.01270608       0.00000000
