10
Lattice="16.28999089631971 0.0 0.0 0.0 16.28999089631971 0.0 0.0 0.0 34.433804113860816" Properties=species:S:1:pos:R:3:initial_magmoms:R:1 pbc="T T T"
Si       1.71301405      -0.78307659       1.59418272       0.00000000
Si       0.75864811       1.19223252      -2.05886717       0.00000000
Si      -1.01051594      -2.26551546      -0.64380920       0.00000000
Si      -1.17594969       2.02256640       1.28496699       0.00000000
Si       0.06370856      -1.75198950       3.01186252       0.00000000
Si       2.21588635       2.74452195      -1.00140445       0.00000000
Si      -1.82619112      -1.65340242      -2.93510467       0.00000000
Si      -1.81236091       3.33259258      -0.67404209       0.00000000
Si      -0.73804940      -3.46618620       1.61519738       0.00000000
Si      -2.74354618       0.93258621       2.72770772       0.00000000
