10
Lattice="16.28999089631971 0.0 0.0 0.0 16.28999089631971 0.0 0.0 0.0 34.433804113860816" Properties=species:S:1:pos:R:3:initial_magmoms:R:1 pbc="T T T"
Si       1.30127778      -1.41562746      -1.35437524       0.00000000
Si       1.36523232       1.34575301       1.36478115       0.00000000
Si      -1.34873055      -1.36525878       1.36536652       0.00000000
Si      -1.07504226       1.46087119      -1.58167980       0.00000000
Si      -1.49284818      -0.41081139      -3.16428040       0.00000000
Si       2.44897344       0.24839997      -2.58423916       0.00000000
Si       0.94744269       2.19650804      -2.73764533       0.00000000
Si      -0.29326887      -2.60468343      -2.71755232       0.00000000
Si      -2.67234192       2.69266886      -0.01721347       0.00000000
Si      -2.70686043      -2.71537398       0.00574701       0.00000000
