10
Lattice="16.28999089631971 0.0 0.0 0.0 16.28999089631971 0.0 0.0 0.0 34.433804113860816" Properties=species:S:1:pos:R:3:initial_magmoms:R:1 pbc="T T T"
Si      -0.71232912      -0.96661439       2.00339428       0.00000000
Si       1.81690515      -1.05480193      -1.05112689       0.00000000
Si      -2.02237092      -0.15772304      -1.29305893       0.00000000
Si       0.79329042       2.26553175       0.23941837       0.00000000
Si      -2.38990590       2.20724613      -1.08669703       0.00000000
Si      -0.19864026       2.92216536      -1.79004231       0.00000000
Si      -2.02447233       0.86089392       2.79182553       0.00000000
Si       3.16651536       1.88072937       0.52694080       0.00000000
Si       3.71874636      -0.38571299       0.15505551       0.00000000
Si      -2.41176708      -2.53179899       1.69011535       0.00000000
