10
Lattice="16.28999089631971 0.0 0.0 0.0 16.28999089631971 0.0 0.0 0.0 34.433804113860816" Properties=species:S:1:pos:R:3:initial_magmoms:R:1 pbc="T T T"
Si      -0.99193068       0.65663361      -2.02946068       0.00000000
Si      -0.79329042      -2.26553175      -0.23941837       0.00000000
Si       2.37322494      -0.38480238       0.28752243       0.00000000
Si      -0.69162453       1.56458934       1.75261274       0.00000000
Si      -3.18319632      -0.05828562      -1.32611541       0.00000000
Si      -1.16932878       0.04554684       3.48521943       0.00000000
Si       1.02361473      -3.32033368      -1.29054527       0.00000000
Si      -0.78874551       2.98988289      -2.16048138       0.00000000
Si       1.20747996       2.91400407       2.17242992       0.00000000
Si       2.79275760      -0.43999290       2.63652899       0.00000000
