10
Lattice="16.28999089631971 0.0 0.0 0.0 16.28999089631971 0.0 0.0 0.0 34.433804113860816" Properties=species:S:1:pos:R:3:initial_magmoms:R:1 pbc="T T T"
Si       1.35632169      -1.35767376       1.35676151       0.00000000
Si      -1.35814617      -1.35723393      -1.35796669       0.00000000
Si      -1.35793440       1.35777150       1.35820773       0.00000000
Si       1.35920502       1.35959598      -1.35927518       0.00000000
Si       2.71360449       0.00063531       2.71452160       0.00000000
Si       0.00006516       2.71494027       2.71376405       0.00000000
Si       0.00112401      -2.71578898       2.71314424       0.00000000
Si       2.71490769       2.71502172       0.00006887       0.00000000
Si       2.71513575      -2.71495493      -0.00120518       0.00000000
Si      -2.71514227       2.71510317      -0.00010330       0.00000000
