10
Lattice="16.28999089631971 0.0 0.0 0.0 16.28999089631971 0.0 0.0 0.0 34.433804113860816" Properties=species:S:1:pos:R:3:initial_magmoms:R:1 pbc="T T T"
Si       1.35681039       1.35803214      -1.35586623       0.00000000
Si      -1.35799956      -1.35716877      -1.35555632       0.00000000
Si       1.35529542      -1.35988920       1.35617613       0.00000000
Si      -1.35870003       1.35931905       1.35937848       0.00000000
Si       2.71353933      -2.71430496       0.00075754       0.00000000
Si       2.71484253       0.00008145      -2.71369518       0.00000000
Si      -0.00006516      -2.71494027      -2.71376405       0.00000000
Si      -2.71520743       0.00016290      -2.71386735       0.00000000
Si      -0.00068418       2.71544526      -2.71390179       0.00000000
Si      -2.71575640       2.71448415       0.00061981       0.00000000
