10
Lattice="16.28999089631971 0.0 0.0 0.0 16.28999089631971 0.0 0.0 0.0 34.433804113860816" Properties=species:S:1:pos:R:3:initial_magmoms:R:1 pbc="T T T"
Si       0.50261166       1.10258865      -2.04905353       0.00000000
Si      -2.07459666      -1.15616646       0.33108121       0.00000000
Si       1.75314609      -1.60717140       0.31386430       0.00000000
Si      -0.35924337       2.10409785       1.09602860       0.00000000
Si      -1.64413341       1.80371025      -2.52310397       0.00000000
Si      -2.10994596       2.83421565      -0.44023643       0.00000000
Si      -1.63764999      -3.30390522      -0.49226594       0.00000000
Si       3.65225058      -0.25775667       0.73368147       0.00000000
Si       1.62127854       3.27702672       0.76071203       0.00000000
Si      -2.81890305      -0.92983320       2.57107029       0.00000000
