10
Lattice="16.28999089631971 0.0 0.0 0.0 16.28999089631971 0.0 0.0 0.0 34.433804113860816" Properties=species:S:1:pos:R:3:initial_magmoms:R:1 pbc="T T T"
Si       1.92094938       1.06145640       0.81198399       0.00000000
Si       0.65849067      -1.02317490      -2.00088061       0.00000000
Si      -0.43991145      -1.72196703       1.52679573       0.00000000
Si      -1.64569725       1.68221943      -0.01738908       0.00000000
Si       1.14303672      -1.22890131       3.08475407       0.00000000
Si      -2.70299970       1.17656154       2.02584513       0.00000000
Si       1.72714725       1.26340353       3.19019043       0.00000000
Si      -2.45526138      -1.28133882       2.75484360       0.00000000
Si       2.63756277      -2.34807318      -1.67451683       0.00000000
Si      -0.59618142      -3.83099423       0.55218079       0.00000000
