10
Lattice="16.28999089631971 0.0 0.0 0.0 16.28999089631971 0.0 0.0 0.0 34.433804113860816" Properties=species:S:1:pos:R:3:initial_magmoms:R:1 pbc="T T T"
Si      -0.65849067       1.02317490       2.00088061       0.00000000
Si       0.47770425       1.51904250      -1.73260669       0.00000000
Si      -1.64843397      -1.45018467      -0.93281227       0.00000000
Si       1.97907210      -1.32489828       0.32636378       0.00000000
Si       1.16932878      -0.04554684      -3.48521943       0.00000000
Si      -0.33629076      -3.27769298      -1.72124353       0.00000000
Si       1.26245871       2.08463130       2.81286460       0.00000000
Si       1.29855735      -3.52101345      -0.04844839       0.00000000
Si      -1.09840212      -0.69879213       3.52767634       0.00000000
Si      -2.80759779      -2.52074066       0.83240325       0.00000000
