10
Lattice="16.28999089631971 0.0 0.0 0.0 16.28999089631971 0.0 0.0 0.0 34.433804113860816" Properties=species:S:1:pos:R:3:initial_magmoms:R:1 pbc="T T T"
Si      -1.35682668      -1.34622189       1.37777991       0.00000000
Si       1.35630540       1.37002158       1.37623039       0.00000000
Si      -1.47784509       1.30844538      -1.32947959       0.00000000
Si       1.23654132      -1.46983041      -1.49383567       0.00000000
Si       2.69812899      -2.71461447      -0.00556795       0.00000000
Si      -2.73010626      -2.69454519       0.01759913       0.00000000
Si       2.70844056       2.72606634       0.01180736       0.00000000
Si      -0.00125433      -2.70430290       2.73715839       0.00000000
Si       2.71327869       0.01187541       2.73736500       0.00000000
Si      -2.71881729       0.01114236       2.73729613       0.00000000
