10
Lattice="16.28999089631971 0.0 0.0 0.0 16.28999089631971 0.0 0.0 0.0 34.433804113860816" Properties=species:S:1:pos:R:3:initial_magmoms:R:1 pbc="T T T"
Si       1.35540945       1.35664749      -1.35755349       0.00000000
Si      -1.35711990       1.35700587       1.35745018       0.00000000
Si      -1.35747828      -1.35770634      -1.35672707       0.00000000
Si       1.35749457      -1.35741312       1.35803556       0.00000000
Si      -0.00439830      -2.71023246      -2.71589895       0.00000000
Si      -2.71149168       0.00087966      -2.71755177       0.00000000
Si      -2.71446949       2.71469592       0.00027547       0.00000000
Si      -0.00172674       2.71686249      -2.71231783       0.00000000
Si       0.00068418      -2.71544526       2.71390179       0.00000000
Si       2.71472850       2.71477737      -0.00010330       0.00000000
