10
Lattice="16.28999089631971 0.0 0.0 0.0 16.28999089631971 0.0 0.0 0.0 34.433804113860816" Properties=species:S:1:pos:R:3:initial_magmoms:R:1 pbc="T T T"
Si       1.77414390       0.79996932      -1.43757769       0.00000000
Si      -0.98953605      -1.86593805      -1.34736107       0.00000000
Si       1.42912170       0.24063588       2.05187710       0.00000000
Si      -1.82127087       1.71406638       0.25821924       0.00000000
Si      -2.62239678      -1.30580640       0.68302932       0.00000000
Si       0.40363362       2.18704653      -2.80704528       0.00000000
Si       2.86557390      -1.54274445       1.52293914       0.00000000
Si      -2.32212321      -0.54990153      -2.81420752       0.00000000
Si       2.53197099       2.37899160       1.77289426       0.00000000
Si      -3.54972132       0.87008148      -1.39030005       0.00000000
