10
Lattice="16.28999089631971 0.0 0.0 0.0 16.28999089631971 0.0 0.0 0.0 34.433804113860816" Properties=species:S:1:pos:R:3:initial_magmoms:R:1 pbc="T T T"
Si      -0.29958939      -2.23021503       0.67721000       0.00000000
Si      -1.63365894       1.51949862       0.76873511       0.00000000
Si       2.03587533       0.66192786       1.03191282       0.00000000
Si       0.24918813       0.55249164      -2.32080526       0.00000000
Si       1.95908427       2.78932041      -0.06415021       0.00000000
Si      -3.38470362       0.71117253      -0.70465376       0.00000000
Si      -0.37405098       3.58366968       0.52015734       0.00000000
Si       2.08746576       1.98034272      -2.24925178       0.00000000
Si      -0.49339152      -2.02826790       3.05541645       0.00000000
Si       1.72540422      -3.32285049       0.11208210       0.00000000
