10
Lattice="16.28999089631971 0.0 0.0 0.0 16.28999089631971 0.0 0.0 0.0 34.433804113860816" Properties=species:S:1:pos:R:3:initial_magmoms:R:1 pbc="T T T"
Si      -0.22473684       1.00809036       2.11843768       0.00000000
Si       1.34022717      -1.85569164       0.57170477       0.00000000
Si      -2.27869407      -0.23739417      -0.61126923       0.00000000
Si       0.26358849       1.71128079      -2.66421378       0.00000000
Si      -1.66646700      -0.13111821      -2.83800129       0.00000000
Si       0.05458779      -0.91825101       3.48931706       0.00000000
Si       2.28631779      -1.18600974       2.61376823       0.00000000
Si       2.41699617      -2.49825069      -1.39212504       0.00000000
Si       1.62056178       2.42577226       2.55450762       0.00000000
Si      -3.36201165       1.90314441       0.39939792       0.00000000
