10
Lattice="16.28999089631971 0.0 0.0 0.0 16.28999089631971 0.0 0.0 0.0 34.433804113860816" Properties=species:S:1:pos:R:3:initial_magmoms:R:1 pbc="T T T"
Si       0.60227388       2.29098392       0.36437872       0.00000000
Si      -1.01317284      -0.37872621       2.17904121       0.00000000
Si       2.04916797      -1.42618950      -0.26603572       0.00000000
Si      -1.17970551      -0.35354187      -2.24949281       0.00000000
Si      -2.74996377       1.28764046      -1.60795625       0.00000000
Si       1.58576634       2.74242869      -1.74348778       0.00000000
Si       1.01068047      -3.46942791       0.40404648       0.00000000
Si       0.18640647      -2.57259825       2.62576928       0.00000000
Si       1.42711803       2.22859322       2.60567628       0.00000000
Si       2.85827598      -0.95832441      -2.50254698       0.00000000
