10
Lattice="16.28999089631971 0.0 0.0 0.0 16.28999089631971 0.0 0.0 0.0 34.433804113860816" Properties=species:S:1:pos:R:3:initial_magmoms:R:1 pbc="T T T"
Si       1.35718506       1.35673957       1.35717471       0.00000000
Si      -1.35798327      -1.35803196       1.35614170       0.00000000
Si      -1.36220238       1.35715008      -1.35648604       0.00000000
Si       1.35650088      -1.35751068      -1.36309733       0.00000000
Si      -0.00037467       2.71370960       2.71390179       0.00000000
Si       2.71419093       2.71434491      -0.00030990       0.00000000
Si      -2.71443528       2.71441007       0.00086085       0.00000000
Si       2.71451673      -0.00135000       2.71438386       0.00000000
Si      -2.71523349      -0.00100523       2.71414282       0.00000000
Si      -0.00030951      -2.71692747       2.71362632       0.00000000
