10
Lattice="16.28999089631971 0.0 0.0 0.0 16.28999089631971 0.0 0.0 0.0 34.433804113860816" Properties=species:S:1:pos:R:3:initial_magmoms:R:1 pbc="T T T"
Si      -1.24976880      -1.98575263      -0.15371259       0.00000000
Si       1.05754680       0.06862977      -2.13324422       0.00000000
Si      -0.39703617       2.27261790      -0.60820462       0.00000000
Si       0.95913891      -0.70582941       2.17260208       0.00000000
Si       1.70448786       3.21673743      -0.16187340       0.00000000
Si      -0.77271615      -0.78421689      -3.47974445       0.00000000
Si       0.43342803      -3.65409854       0.36334570       0.00000000
Si       2.24795484      -2.61719538       1.54118907       0.00000000
Si      -2.54267352      -1.80718165      -2.14278239       0.00000000
Si       3.00967524      -1.31794245      -2.03152671       0.00000000
