10
Lattice="16.28999089631971 0.0 0.0 0.0 16.28999089631971 0.0 0.0 0.0 34.433804113860816" Properties=species:S:1:pos:R:3:initial_magmoms:R:1 pbc="T T T"
Si       1.44062244      -1.28264528      -1.30115088       0.00000000
Si      -1.28137140       1.47090555      -1.29598581       0.00000000
Si       1.83026295       0.85284666       1.34650023       0.00000000
Si      -1.76995737      -1.02296476       1.33696206       0.00000000
Si      -0.47705265      -1.20153574       3.32603187       0.00000000
Si       0.77271615       0.78421689       3.47974445       0.00000000
Si       0.08182467      -2.61831518      -2.66590104       0.00000000
Si      -2.63327850       0.09749565      -2.66145907       0.00000000
Si       2.66437611       2.66473449       0.04934367       0.00000000
Si       2.83473693      -2.47859290       0.28800450       0.00000000
