10
Lattice="16.28999089631971 0.0 0.0 0.0 16.28999089631971 0.0 0.0 0.0 34.433804113860816" Properties=species:S:1:pos:R:3:initial_magmoms:R:1 pbc="T T T"
Si      -0.75898042       2.20343427      -0.29947096       0.00000000
Si       1.97356119      -0.88592513      -0.99176298       0.00000000
Si      -1.83327238      -1.18950557      -0.97582012       0.00000000
Si       0.22239923      -0.47503269       2.33802217       0.00000000
Si      -1.90706608      -1.47216640       2.68917830       0.00000000
Si      -0.65990627      -2.57247512      -2.48584658       0.00000000
Si       1.66740693       1.37665161       2.93155799       0.00000000
Si       2.12118117      -2.06023702       2.36181594       0.00000000
Si       3.52648689      -1.17300380       0.72889517       0.00000000
Si      -0.83655014       3.23240841       1.78959467       0.00000000
