10
Lattice="16.28999089631971 0.0 0.0 0.0 16.28999089631971 0.0 0.0 0.0 34.433804113860816" Properties=species:S:1:pos:R:3:initial_magmoms:R:1 pbc="T T T"
Si       0.83085516      -1.75659957       1.25421758       0.00000000
Si      -1.25732736       1.32440958       1.44463663       0.00000000
Si      -1.78613334      -0.33513417      -1.55978333       0.00000000
Si       2.17025154       1.07479791      -0.21225009       0.00000000
Si      -0.04284270       0.61457283      -2.74551204       0.00000000
Si      -0.95255775       3.32970858       0.25701406       0.00000000
Si       1.24541937      -0.81909378       3.31367012       0.00000000
Si       1.42379487       3.36745251       0.07561668       0.00000000
Si      -0.20430918       1.05396300       3.52650559       0.00000000
Si      -2.66714541      -2.50271415      -0.77283273       0.00000000
