10
Lattice="16.28999089631971 0.0 0.0 0.0 16.28999089631971 0.0 0.0 0.0 34.433804113860816" Properties=species:S:1:pos:R:3:initial_magmoms:R:1 pbc="T T T"
Si      -0.41456421      -0.93750579      -2.05945254       0.00000000
Si      -1.44972855       1.87305678       0.21283546       0.00000000
Si       1.96670799       1.35321030       0.25622208       0.00000000
Si      -1.57734441      -1.80908595       0.28373470       0.00000000
Si       0.49552551       3.18917475       0.51681725       0.00000000
Si      -1.15781175      -1.86427647       2.63274127       0.00000000
Si       2.65132782       1.20195765      -1.93325258       0.00000000
Si      -1.24541937       0.81909378      -3.31367012       0.00000000
Si      -1.18508121       0.32088042       3.53921167       0.00000000
Si      -2.50274673       2.14350336      -1.86903350       0.00000000
