10
Lattice="16.28999089631971 0.0 0.0 0.0 16.28999089631971 0.0 0.0 0.0 34.433804113860816" Properties=species:S:1:pos:R:3:initial_magmoms:R:1 pbc="T T T"
Si      -0.56557251       1.99888074       1.12763885       0.00000000
Si      -1.89910449      -1.34941473      -0.41981717       0.00000000
Si       1.29336084       0.38333628      -1.95580673       0.00000000
Si       1.55800818      -1.16884008       1.37056947       0.00000000
Si      -3.65225058       0.25775667      -0.73368147       0.00000000
Si       1.58527764      -3.35399697       0.46409907       0.00000000
Si       2.74308939      -1.48972050      -2.16864220       0.00000000
Si       3.42871920       0.30794616       1.65544049       0.00000000
Si      -0.81476064       1.44638910       3.44844411       0.00000000
Si      -1.20747996      -2.91400407      -2.17242992       0.00000000
