10
Lattice="16.28999089631971 0.0 0.0 0.0 16.28999089631971 0.0 0.0 0.0 34.433804113860816" Properties=species:S:1:pos:R:3:initial_magmoms:R:1 pbc="T T T"
Si      -2.12946531      -0.99713371       0.35115613       0.00000000
Si      -0.22239923       0.47503269      -2.33802217       0.00000000
Si       1.44500771       1.85168430       0.59353581       0.00000000
Si       1.89878195      -1.58520434       0.02379377       0.00000000
Si       1.50086612       0.43525251       2.67451780       0.00000000
Si       0.44154371      -3.13749377      -1.03366894       0.00000000
Si      -1.49305409      -2.30715989       2.31016521       0.00000000
Si       3.30408767      -0.69797111      -1.60912700       0.00000000
Si       1.75116197      -0.41089244      -3.32978515       0.00000000
Si       3.46035764       1.41105609      -0.63451206       0.00000000
