10
Lattice="16.28999089631971 0.0 0.0 0.0 16.28999089631971 0.0 0.0 0.0 34.433804113860816" Properties=species:S:1:pos:R:3:initial_magmoms:R:1 pbc="T T T"
Si       1.86724125       0.86846877      -1.20790409       0.00000000
Si      -0.88405830      -1.85140737      -1.27505005       0.00000000
Si      -1.80858096       1.74827538      -0.00065424       0.00000000
Si       1.59288507      -1.14484491       1.64311318       0.00000000
Si      -0.54032301      -0.39289851       2.49263004       0.00000000
Si      -2.55174705      -1.53090162       1.71322045       0.00000000
Si       0.42705864       2.18909907      -2.61414700       0.00000000
Si      -2.31274017      -0.55415322      -2.63243136       0.00000000
Si      -0.76075929       3.60038322      -1.10567007       0.00000000
Si      -2.20786515      -3.21308847       0.05850307       0.00000000
