10
Lattice="16.28999089631971 0.0 0.0 0.0 16.28999089631971 0.0 0.0 0.0 34.433804113860816" Properties=species:S:1:pos:R:3:initial_magmoms:R:1 pbc="T T T"
Si       1.70406432      -1.44539541      -0.64157100       0.00000000
Si      -0.50728689       0.33617673       2.25699939       0.00000000
Si      -2.01038148      -0.64537722      -1.00866999       0.00000000
Si       0.35569215       2.30674545      -0.40001773       0.00000000
Si      -1.90537614       2.93402448      -0.17495826       0.00000000
Si       1.30199454      -3.13685127       0.93219247       0.00000000
Si       1.60578675       1.09887453       2.97463470       0.00000000
Si      -2.15269092       2.03427891       2.11675042       0.00000000
Si      -2.95326297       1.44344061      -1.62878871       0.00000000
Si       0.98484453      -2.13947973      -2.82267824       0.00000000
