10
Lattice="16.28999089631971 0.0 0.0 0.0 16.28999089631971 0.0 0.0 0.0 34.433804113860816" Properties=species:S:1:pos:R:3:initial_magmoms:R:1 pbc="T T T"
Si       1.35299853       1.35850455       1.37839284       0.00000000
Si      -1.35659210      -1.36270737       1.37274569       0.00000000
Si       1.45852515      -1.32704856      -1.34352859       0.00000000
Si      -1.40959488       1.32281316      -1.45309357       0.00000000
Si       2.70151731       2.71969695       0.01704130       0.00000000
Si      -2.73151439       2.70326034       0.00078853       0.00000000
Si      -2.72161790      -2.72533329      -0.01244783       0.00000000
Si      -0.00008145       2.71103067       2.73756471       0.00000000
Si       2.71722087      -0.00205254       2.73515434       0.00000000
Si      -2.71611125      -0.00254124       2.73646283       0.00000000
