10
Lattice="16.28999089631971 0.0 0.0 0.0 16.28999089631971 0.0 0.0 0.0 34.433804113860816" Properties=species:S:1:pos:R:3:initial_magmoms:R:1 pbc="T T T"
Si      -0.94609062      -0.66968190      -2.04206346       0.00000000
Si       1.04673024       2.08000494       0.55620955       0.00000000
Si      -2.23173000       0.26775873       0.87554883       0.00000000
Si       1.55517372      -1.81697031       0.34709294       0.00000000
Si      -2.51105463       2.19410010      -0.49533055       0.00000000
Si      -2.28631779       1.18600974      -2.61376823       0.00000000
Si      -0.66575601       3.61178200      -0.05926061       0.00000000
Si       3.61494648      -0.65355480       0.38266308       0.00000000
Si      -2.04893991      -2.80803762      -1.76308062       0.00000000
Si       2.10999483       2.94091515      -1.48234166       0.00000000
