10
Lattice="16.28999089631971 0.0 0.0 0.0 16.28999089631971 0.0 0.0 0.0 34.433804113860816" Properties=species:S:1:pos:R:3:initial_magmoms:R:1 pbc="T T T"
Si      -1.03848750      -2.04323841       0.67008220       0.00000000
Si       0.80910801       0.46786509      -2.23651126       0.00000000
Si       2.07228348       0.59974893       1.20270458       0.00000000
Si      -2.04916797       1.42618950       0.26603572       0.00000000
Si       0.87948081       1.70667465       3.02511817       0.00000000
Si      -1.86276150      -1.14640875       2.89180500       0.00000000
Si       2.98030437       2.22856389      -0.34712737       0.00000000
Si       1.42574967       2.79119769      -2.03789697       0.00000000
Si       2.53417014      -1.11982347      -2.63501390       0.00000000
Si       0.72529596      -3.77388801       0.68299489       0.00000000
