10
Lattice="16.28999089631971 0.0 0.0 0.0 16.28999089631971 0.0 0.0 0.0 34.433804113860816" Properties=species:S:1:pos:R:3:initial_magmoms:R:1 pbc="T T T"
Si      -1.39411449       1.19594762      -1.58915538       0.00000000
Si       0.94765446       1.94486734       1.16021324       0.00000000
Si      -1.11154815      -1.55597488       1.55871588       0.00000000
Si       1.31289255      -1.49495254      -1.56157389       0.00000000
Si      -1.00447398       3.33143956       1.05849573       0.00000000
Si       2.13110667      -1.52657143       2.62984883       0.00000000
Si      -2.83473693       2.47859290      -0.28800450       0.00000000
Si      -2.56008753      -2.79233701      -0.07348178       0.00000000
Si       2.74658475       2.69870338      -0.19816665       0.00000000
Si      -0.03746700       2.57211379      -2.95111640       0.00000000
