10
Lattice="16.28999089631971 0.0 0.0 0.0 16.28999089631971 0.0 0.0 0.0 34.433804113860816" Properties=species:S:1:pos:R:3:initial_magmoms:R:1 pbc="T T T"
Si       1.35799956       1.35716877       1.35555632       0.00000000
Si      -1.35720787       1.35733167      -1.35831103       0.00000000
Si      -1.35908447      -1.35817875       1.35617613       0.00000000
Si       1.35793440      -1.35777150      -1.35820773       0.00000000
Si      -2.71321620      -0.00342090       2.71066501       0.00000000
Si       2.71329498      -0.00272043       2.71173246       0.00000000
Si       2.71425609      -2.71544526      -0.00144622       0.00000000
Si      -2.71457816       2.71516833      -0.00151509       0.00000000
Si      -2.71480778      -2.71515204      -0.00072311       0.00000000
Si      -0.00016290       2.71490769      -2.71507254       0.00000000
