10
Lattice="16.28999089631971 0.0 0.0 0.0 16.28999089631971 0.0 0.0 0.0 34.433804113860816" Properties=species:S:1:pos:R:3:initial_magmoms:R:1 pbc="T T T"
Si       2.12946531       0.99713371      -0.35115613       0.00000000
Si       0.63641122      -1.31002618       1.95900908       0.00000000
Si      -1.97499960       1.67439046       0.02517112       0.00000000
Si      -1.09599120      -1.04445031      -2.10142737       0.00000000
Si      -3.07700181      -0.18610348      -0.96548997       0.00000000
Si       1.90706608       1.47216640      -2.68917830       0.00000000
Si       2.57100902      -2.14036006      -1.38482507       0.00000000
Si       0.07379370       0.28266082      -3.66499842       0.00000000
Si       1.81236091      -3.33259258       0.67404209       0.00000000
Si       1.82803841       0.26359012       3.51128037       0.00000000
