10
Lattice="16.28999089631971 0.0 0.0 0.0 16.28999089631971 0.0 0.0 0.0 34.433804113860816" Properties=species:S:1:pos:R:3:initial_magmoms:R:1 pbc="T T T"
Si       1.35409448       1.34027604      -1.35559076       0.00000000
Si      -1.49258754       1.19775483       1.36371714       0.00000000
Si      -1.35969372      -1.37345877      -1.34873843       0.00000000
Si       1.42435803      -1.24686918       1.40421132       0.00000000
Si      -0.37457226      -2.00070522       2.76259121       0.00000000
Si      -2.32670070      -0.61413300       2.66087370       0.00000000
Si      -0.17011647       2.52213183       2.77209495       0.00000000
Si       2.71172692       2.68872966       0.01432447       0.00000000
Si      -0.00299736       2.70171279      -2.70963199       0.00000000
Si      -2.71678104       2.69475696       0.00296131       0.00000000
