10
Lattice="16.28999089631971 0.0 0.0 0.0 16.28999089631971 0.0 0.0 0.0 34.433804113860816" Properties=species:S:1:pos:R:3:initial_magmoms:R:1 pbc="T T T"
Si      -0.33858765       2.32319835       0.15853332       0.00000000
Si       2.00673971      -0.53237349       1.15167366       0.00000000
Si       0.09617616      -0.34863858      -2.35813152       0.00000000
Si      -2.03098833      -1.12798476       0.74855689       0.00000000
Si      -2.11844934      -1.29226941      -2.34993628       0.00000000
Si       1.19944640      -0.91735506       3.33767050       0.00000000
Si      -1.31339754      -3.42914274       0.56481800       0.00000000
Si       2.84492537      -2.53920375       0.22068637       0.00000000
Si      -0.65329416       3.21323508      -2.02801446       0.00000000
Si      -3.75748398      -0.43605072      -0.84411075       0.00000000
