10
Lattice="16.28999089631971 0.0 0.0 0.0 16.28999089631971 0.0 0.0 0.0 34.433804113860816" Properties=species:S:1:pos:R:3:initial_magmoms:R:1 pbc="T T T"
Si      -0.74121129       1.85932431      -1.29192262       0.00000000
Si      -0.09617616       0.34863858       2.35813152       0.00000000
Si      -2.21462550      -0.94363083       0.00819525       0.00000000
Si       1.26946571      -1.92658572      -0.86583849       0.00000000
Si      -0.74947032       3.56187366       0.33011706       0.00000000
Si      -0.43476381       2.67183693       2.51666485       0.00000000
Si      -2.79844281      -0.81575433      -2.27311442       0.00000000
Si      -1.92134034      -3.17518164       0.65634311       0.00000000
Si      -2.12716449      -0.77934618       3.10668841       0.00000000
Si       0.04794147      -3.90197628      -0.36589381       0.00000000
