10
Lattice="16.28999089631971 0.0 0.0 0.0 16.28999089631971 0.0 0.0 0.0 34.433804113860816" Properties=species:S:1:pos:R:3:initial_magmoms:R:1 pbc="T T T"
Si      -0.68461983       0.15125265       2.18947466       0.00000000
Si       0.71759079      -2.30115798      -0.18373888       0.00000000
Si       2.03098833       1.12798476      -0.74855689       0.00000000
Si      -1.72649565       0.69193404      -1.59266763       0.00000000
Si      -0.08746101      -0.16428465      -3.09849316       0.00000000
Si       0.20582415      -2.39583546      -2.45034530       0.00000000
Si      -2.65132782      -1.20195765       1.93325258       0.00000000
Si       1.13055858      -0.70618779       3.36008692       0.00000000
Si      -3.06589203      -2.13946344      -0.12619996       0.00000000
Si      -2.15580231       1.98721710       2.45006983       0.00000000
