10
Lattice="16.28999089631971 0.0 0.0 0.0 16.28999089631971 0.0 0.0 0.0 34.433804113860816" Properties=species:S:1:pos:R:3:initial_magmoms:R:1 pbc="T T T"
Si       1.35102744       1.33626870       1.37918826       0.00000000
Si      -1.36492281      -1.37570679       1.37202602       0.00000000
Si       1.35723393      -1.31025357      -1.46839596       0.00000000
Si      -1.36920708       1.39198050      -1.44792506       0.00000000
Si      -0.46402065      -2.11704840      -2.83080948       0.00000000
Si      -2.31308226      -0.43864083      -2.72888536       0.00000000
Si       2.68522032       2.70863604       0.00506522       0.00000000
Si      -2.72642472       2.69594613       0.01090864       0.00000000
Si      -0.00496845       2.69578323       2.73588090       0.00000000
Si       2.69198766      -2.74110201       0.00044764       0.00000000
