10
Lattice="16.28999089631971 0.0 0.0 0.0 16.28999089631971 0.0 0.0 0.0 34.433804113860816" Properties=species:S:1:pos:R:3:initial_magmoms:R:1 pbc="T T T"
Si      -1.34263809      -1.34957763       1.37815524       0.00000000
Si       1.37741954       1.36635633       1.37595148       0.00000000
Si       1.32191951      -1.38044718      -1.45388211       0.00000000
Si      -1.33475373       1.43084844      -1.46884360       0.00000000
Si       2.25097568       0.56128824      -2.43767572       0.00000000
Si       0.56065523       2.32308432      -2.68638400       0.00000000
Si      -2.68716582      -2.69237862      -0.01171783       0.00000000
Si      -2.69711901       0.00544086       2.73557099       0.00000000
Si      -2.69198766       2.74110201      -0.00044764       0.00000000
Si       2.73151439      -2.70326034      -0.00078853       0.00000000
