10
Lattice="16.28999089631971 0.0 0.0 0.0 16.28999089631971 0.0 0.0 0.0 34.433804113860816" Properties=species:S:1:pos:R:3:initial_magmoms:R:1 pbc="T T T"
Si       1.35184750      -1.35687555      -1.35968838       0.00000000
Si      -1.36735002      -1.35728280       1.35510868       0.00000000
Si      -1.36278882       1.36093176      -1.35844877       0.00000000
Si       1.36782310       1.35405738       1.36530110       0.00000000
Si      -0.06908589       2.53733040       2.77099307       0.00000000
Si      -2.61202005       0.04794147       2.77705342       0.00000000
Si       2.70890387      -2.71204065      -0.00092971       0.00000000
Si       2.71195010       2.71101438      -0.00030990       0.00000000
Si       2.70979982       0.00109143      -2.71675980       0.00000000
Si      -0.00497382      -2.71336014      -2.71737960       0.00000000
