10
Lattice="16.28999089631971 0.0 0.0 0.0 16.28999089631971 0.0 0.0 0.0 34.433804113860816" Properties=species:S:1:pos:R:3:initial_magmoms:R:1 pbc="T T T"
Si       1.55319678       0.93559986      -1.40641508       0.00000000
Si      -0.00825903       1.70254935       1.62203968       0.00000000
Si      -1.90614177      -0.40220010      -1.33575688       0.00000000
Si       0.74121129      -1.85932431       1.29192262       0.00000000
Si      -1.47341421      -2.80295514       1.30011787       0.00000000
Si      -2.05723152      -2.67507864      -0.98119180       0.00000000
Si      -0.08623926       2.59371009      -2.61228758       0.00000000
Si       3.53710376       1.11337263       0.31579259       0.00000000
Si      -1.82333970       3.14960634       1.40903205       0.00000000
Si       2.03813542       2.99838627       1.45348612       0.00000000
