10
Lattice="16.28999089631971 0.0 0.0 0.0 16.28999089631971 0.0 0.0 0.0 34.433804113860816" Properties=species:S:1:pos:R:3:initial_magmoms:R:1 pbc="T T T"
Si       2.05111137      -0.14450859       1.12261151       0.00000000
Si      -1.22152424      -1.97539056       0.49994468       0.00000000
Si      -1.26946571       1.92658572       0.86583849       0.00000000
Si       2.70554583      -2.21521194       0.04132059       0.00000000
Si      -3.48409121       0.98295489       0.87403374       0.00000000
Si      -3.19080605      -1.24859592       1.52218160       0.00000000
Si       1.47928350      -0.26397945       3.44465639       0.00000000
Si       3.74717730       0.71561970      -0.33548874       0.00000000
Si       0.91763688      -1.96180470      -3.22975490       0.00000000
Si      -0.24220624      -3.21670485       2.33368351       0.00000000
