10
Lattice="16.28999089631971 0.0 0.0 0.0 16.28999089631971 0.0 0.0 0.0 34.433804113860816" Properties=species:S:1:pos:R:3:initial_magmoms:R:1 pbc="T T T"
Si       2.17508871       0.00496845      -0.79015294       0.00000000
Si       0.65503719      -0.63711819       2.15376678       0.00000000
Si      -0.99279405      -1.86149088      -1.05567216       0.00000000
Si      -1.11384504       2.16854109       0.67369775       0.00000000
Si      -1.67514957       2.53392579      -1.63354058       0.00000000
Si      -3.21413103      -1.16028783      -0.78261194       0.00000000
Si       1.87363900       0.59637690      -3.01020484       0.00000000
Si       3.27468815       1.49796324       0.61536686       0.00000000
Si      -1.57237596      -0.38079504       3.29690085       0.00000000
Si       2.35524960       1.03145022       2.71786168       0.00000000
