10
Lattice="16.28999089631971 0.0 0.0 0.0 16.28999089631971 0.0 0.0 0.0 34.433804113860816" Properties=species:S:1:pos:R:3:initial_magmoms:R:1 pbc="T T T"
Si       1.16978490       1.32711113      -1.56357105       0.00000000
Si      -0.09896175      -2.07529713      -1.16358776       0.00000000
Si      -1.98101061       0.85834683       1.13593740       0.00000000
Si       1.09599120       1.04445031       2.10142737       0.00000000
Si      -0.87900840       2.71884077       2.12659850       0.00000000
Si      -2.42714484      -2.49004053      -1.15194913       0.00000000
Si      -0.43823358       2.73045554      -2.67003310       0.00000000
Si      -3.53556531       1.42098063      -0.55483220       0.00000000
Si       2.34315101      -0.05585841      -3.07359751       0.00000000
Si       3.66700022      -1.09590975       0.71660230       0.00000000
