10
Lattice="16.28999089631971 0.0 0.0 0.0 16.28999089631971 0.0 0.0 0.0 34.433804113860816" Properties=species:S:1:pos:R:3:initial_magmoms:R:1 pbc="T T T"
Si       0.80175796       1.71419670       1.39666514       0.00000000
Si      -1.89540896      -0.89223588       1.21754040       0.00000000
Si       1.69032045      -1.76179608       0.24870828       0.00000000
Si      -0.27246654       1.20067074      -2.25900657       0.00000000
Si       0.69883123      -1.01608875      -2.95945941       0.00000000
Si       2.16610248       0.40562100       2.73605823       0.00000000
Si      -0.56065523      -2.32308432       2.68638400       0.00000000
Si       2.45106345       2.68310961      -0.02101466       0.00000000
Si       2.69849226      -2.02963626      -1.81029942       0.00000000
Si       3.52191918      -0.84953979       1.35729351       0.00000000
