10
Lattice="16.28999089631971 0.0 0.0 0.0 16.28999089631971 0.0 0.0 0.0 34.433804113860816" Properties=species:S:1:pos:R:3:initial_magmoms:R:1 pbc="T T T"
Si       1.36434451      -1.30857570       1.33939309       0.00000000
Si      -0.80175796      -1.71419670      -1.39666514       0.00000000
Si      -1.36918053       1.41245703       1.29433643       0.00000000
Si       1.64930548       0.96891291      -1.41767980       0.00000000
Si      -0.06370856       1.75198950      -3.01186252       0.00000000
Si       2.61196304       2.66916537      -0.09830857       0.00000000
Si       2.72016121      -2.56373649      -0.03937163       0.00000000
Si      -2.69716692      -2.60643258      -0.17912475       0.00000000
Si       0.88856249      -3.47599278      -1.14795687       0.00000000
Si       0.01500635      -2.67092469       2.66567033       0.00000000
