10
Lattice="16.28999089631971 0.0 0.0 0.0 16.28999089631971 0.0 0.0 0.0 34.433804113860816" Properties=species:S:1:pos:R:3:initial_magmoms:R:1 pbc="T T T"
Si      -2.01130512      -1.02736143       0.60176550       0.00000000
Si      -0.38455803       2.32824825      -0.18380775       0.00000000
Si       0.46581255      -1.03050540      -2.08286754       0.00000000
Si       1.75070259      -0.73011780       1.53626503       0.00000000
Si      -2.20846136       2.34066123       1.28114483       0.00000000
Si       2.61255762      -1.73162700      -1.60881709       0.00000000
Si       2.10994596      -2.83421565       0.44023643       0.00000000
Si      -1.70985542      -1.61876988       2.82181739       0.00000000
Si      -1.90294241      -3.16910547      -0.33886326       0.00000000
Si       1.80660987       3.27021750      -0.01091552       0.00000000
