10
Lattice="16.28999089631971 0.0 0.0 0.0 16.28999089631971 0.0 0.0 0.0 34.433804113860816" Properties=species:S:1:pos:R:3:initial_magmoms:R:1 pbc="T T T"
Si       1.34296389       1.34306163      -1.36709854       0.00000000
Si      -1.35893109       1.35347415       1.35803556       0.00000000
Si       1.35461124      -1.36319607       1.35896527       0.00000000
Si      -1.38261163      -1.34860023      -1.37374427       0.00000000
Si       2.59853193      -0.09189189      -2.76638926       0.00000000
Si       2.71627605       2.70791506      -0.00426979       0.00000000
Si      -0.00122338       2.71133596       2.71472820       0.00000000
Si       2.71134018      -2.71599912       0.00282357       0.00000000
Si       2.71306692      -0.00306252       2.71496924       0.00000000
Si      -2.71581083       2.71239807      -0.00272027       0.00000000
