10
Lattice="16.28999089631971 0.0 0.0 0.0 16.28999089631971 0.0 0.0 0.0 34.433804113860816" Properties=species:S:1:pos:R:3:initial_magmoms:R:1 pbc="T T T"
Si      -1.35773578      -1.35495333       1.35834546       0.00000000
Si       1.35750327      -1.35710361      -1.35714028       0.00000000
Si      -1.35783352       1.35811359      -1.35741575       0.00000000
Si       1.35804898       1.36060596       1.35841433       0.00000000
Si       2.71351708      -0.00213399      -2.71359188       0.00000000
Si       0.00052506      -2.71386513      -2.71472820       0.00000000
Si      -0.00002525       2.71453623      -2.71452160       0.00000000
Si      -2.71389457      -0.00039096      -2.71548574       0.00000000
Si      -2.71487197      -2.71469592       0.00013774       0.00000000
Si       2.71485286      -2.71479366       0.00003443       0.00000000
