10
Lattice="16.28999089631971 0.0 0.0 0.0 16.28999089631971 0.0 0.0 0.0 34.433804113860816" Properties=species:S:1:pos:R:3:initial_magmoms:R:1 pbc="T T T"
Si      -1.35843253       1.35541439       1.35745018       0.00000000
Si       1.35717854       1.35557166      -1.35879310       0.00000000
Si      -1.35804898      -1.36060596      -1.35841433       0.00000000
Si       1.35895415      -1.36547667       1.35806999       0.00000000
Si       2.70980240       0.01528002       2.71627772       0.00000000
Si      -2.71687619       2.71001810      -0.00127405       0.00000000
Si       2.71566680       2.71141090      -0.00254810       0.00000000
Si      -0.00036653       2.71179208      -2.71624329       0.00000000
Si       2.71392377      -0.00260640      -2.71600225       0.00000000
Si      -0.01701328       2.70872956       2.72147723       0.00000000
