10
Lattice="16.28999089631971 0.0 0.0 0.0 16.28999089631971 0.0 0.0 0.0 34.433804113860816" Properties=species:S:1:pos:R:3:initial_magmoms:R:1 pbc="T T T"
Si       0.11509211      -1.67194044      -1.58471342       0.00000000
Si       0.88338389       1.92746538      -0.98714885       0.00000000
Si       1.25958515      -0.77398677       1.90739278       0.00000000
Si      -2.41191110       0.13294269      -0.01291268       0.00000000
Si      -0.56431818      -0.76157379       3.37234536       0.00000000
Si      -2.99326862      -2.11002741       0.38431590       0.00000000
Si      -1.79683328      -3.03078708      -1.42679990       0.00000000
Si      -2.97686459       1.77565887       1.57001018       0.00000000
Si       2.35094999       1.28021481      -2.71930790       0.00000000
Si      -0.95424539       3.34695222      -1.58254409       0.00000000
