10
Lattice="16.28999089631971 0.0 0.0 0.0 16.28999089631971 0.0 0.0 0.0 34.433804113860816" Properties=species:S:1:pos:R:3:initial_magmoms:R:1 pbc="T T T"
Si      -0.88338389      -1.92746538       0.98714885       0.00000000
Si       1.46756610      -0.64725057      -1.73215905       0.00000000
Si       0.96285303       1.37174785       1.68453707       0.00000000
Si      -1.83762929       1.41948684      -0.59539524       0.00000000
Si       2.45750940       1.54813059      -1.48719683       0.00000000
Si      -0.98216483       2.11122377       2.76985675       0.00000000
Si      -2.90669705       1.75694233       1.47831290       0.00000000
Si      -0.76829179      -3.59940582      -0.59756457       0.00000000
Si       2.49981453       2.83105932       0.54736006       0.00000000
Si       0.70928289       2.76356985      -2.54104399       0.00000000
