10
Lattice="10.86 0.0 0.0 0.0 10.86 0.0 0.0 0.0 10.86" Properties=species:S:1:pos:R:3:initial_magmoms:R:1 pbc="T T T"
Si      -2.05714464      -0.50614116       1.04913030       0.00000000
Si      -0.32512668      -0.65762730      -2.40789006       0.00000000
Si       2.47548270      -0.40341642       0.34466382       0.00000000
Si       1.04411298      -1.81341366       1.52767620       0.00000000
Si      -1.67088702      -1.81341366      -1.18732380       0.00000000
Si      -0.51339564      -0.15228978       2.89649232       0.00000000
Si      -0.31338702      -3.17091366       0.17017620       0.00000000
Si       2.15623128       2.09285232      -2.34786684       0.00000000
Si       3.75911298       0.90158634       1.52767620       0.00000000
Si       3.75911298      -1.81341366      -1.18732380       0.00000000
