10
Lattice="16.290000149 0.0 0.0 0.0 16.290000149 0.0 0.0 0.0 29.1751946751" Properties=species:S:1:pos:R:3:initial_magmoms:R:1 pbc="T T T"
Si       1.32881441      -1.36179514       1.37263456       0.00000000
Si      -1.36993363      -1.36871839      -1.32467054       0.00000000
Si      -1.36573081       1.35094600       1.34871090       0.00000000
Si       1.36691672       1.36676359      -1.34302174       0.00000000
Si       0.01038325      -2.71660839      -2.66369527       0.00000000
Si      -2.69391968       0.01319490      -2.68770646       0.00000000
Si       2.68437048       0.00592956       2.71014218       0.00000000
Si      -0.02272618       2.71103069       2.70252746       0.00000000
Si       2.72727834       0.01309716      -2.69497108       0.00000000
Si      -2.70123389       2.72546363      -0.00609762       0.00000000
