10
Lattice="16.290000149 0.0 0.0 0.0 16.290000149 0.0 0.0 0.0 29.1751946751" Properties=species:S:1:pos:R:3:initial_magmoms:R:1 pbc="T T T"
Si      -0.92056420      -1.83093086       1.16890417       0.00000000
Si       1.14595264       0.12738780      -2.05979792       0.00000000
Si       1.56468709       0.77885749       1.59109842       0.00000000
Si      -1.93306916       1.48957390      -0.31964343       0.00000000
Si      -1.94191463      -0.34176420       2.64575253       0.00000000
H       -2.82313848       0.53835192       1.78771005       0.00000000
H        1.85016935      -2.84609109      -0.14059526       0.00000000
Si      -0.04207707       0.95381209       3.27392365       0.00000000
Si       2.39241458       2.71053874       0.57057928       0.00000000
Si       2.67141341       1.97314256      -1.63582399       0.00000000
