10
Lattice="16.290000149 0.0 0.0 0.0 16.290000149 0.0 0.0 0.0 29.1751946751" Properties=species:S:1:pos:R:3:initial_magmoms:R:1 pbc="T T T"
H       -1.03280230      -1.10789920       0.21315397       0.00000000
Si       1.48651301      -1.07525404      -1.42795073       0.00000000
Si       1.16118379      -0.16202034       2.02052811       0.00000000
Si      -1.25856541       1.64203201      -1.15603791       0.00000000
H       -1.55328409       0.43308594       2.02869716       0.00000000
Si       0.00474039      -2.21858399       2.61363064       0.00000000
Si      -2.55669923      -0.03052746      -2.33103970       0.00000000
Si      -2.00396324      -0.85108735       2.69190769       0.00000000
Si       0.06636546      -2.51393798      -2.59455006       0.00000000
Si       3.04683276      -2.15733359      -0.06485646       0.00000000
