10
Lattice="16.290000149 0.0 0.0 0.0 16.290000149 0.0 0.0 0.0 29.1751946751" Properties=species:S:1:pos:R:3:initial_magmoms:R:1 pbc="T T T"
Si      -1.33196815       1.36713826      -1.37094240       0.00000000
Si       1.37067971       1.37232663       1.32939692       0.00000000
Si       1.36927388      -1.33999912      -1.38016176       0.00000000
Si      -1.37896480      -1.32691825       1.38885597       0.00000000
Si      -2.63656910      -2.69529455      -0.06616934       0.00000000
Si       0.05997585      -2.67659363       2.67513195       0.00000000
Si      -0.02590110       2.70972749       2.67702834       0.00000000
Si      -2.70343955       2.70689303      -0.00676865       0.00000000
Si      -2.66976812       0.01251072      -2.74804076       0.00000000
Si       2.77664682       0.03381804       2.66191559       0.00000000
