10
Lattice="16.290000149 0.0 0.0 0.0 16.290000149 0.0 0.0 0.0 29.1751946751" Properties=species:S:1:pos:R:3:initial_magmoms:R:1 pbc="T T T"
Si       0.44501022      -0.24671205       2.28201196       0.00000000
Si      -1.71634700       1.63396847       0.10765647       0.00000000
Si      -0.04105080      -2.29353428      -0.67380112       0.00000000
Si       1.86873995       0.90168409      -1.27533528       0.00000000
H       -0.91812070       0.17040969      -2.54241399       0.00000000
Si       2.14830893      -2.67937922       0.14167475       0.00000000
Si      -0.32575113       3.36981459      -0.80964083       0.00000000
Si       2.07572069      -1.98635375       2.36508132       0.00000000
Si       3.46305855       1.71807374       0.28545010       0.00000000
Si      -3.77447448       0.63314344      -0.61772640       0.00000000
