10
Lattice="16.290000149 0.0 0.0 0.0 16.290000149 0.0 0.0 0.0 29.1751946751" Properties=species:S:1:pos:R:3:initial_magmoms:R:1 pbc="T T T"
Si       0.34518510      -0.88368364      -2.13346529       0.00000000
Si      -1.82433341       1.45388251       0.16994551       0.00000000
Si       1.62044776       1.68712274       0.07655571       0.00000000
Si       0.22444362      -1.51607773       1.83281490       0.00000000
H       -0.90883540      -1.44663346       2.83533294       0.00000000
Si       1.05759568       2.72181467       2.08678497       0.00000000
Si       2.28244079      -0.81945217       2.74229325       0.00000000
Si       1.40043502       0.87931792      -3.31357274       0.00000000
Si      -3.65329317       0.16004925       0.80602310       0.00000000
Si       3.54489951      -1.06697872       0.80564383       0.00000000
