10
Lattice="16.290000149 0.0 0.0 0.0 16.290000149 0.0 0.0 0.0 29.1751946751" Properties=species:S:1:pos:R:3:initial_magmoms:R:1 pbc="T T T"
Si      -2.19359513       0.72418825       0.46826187       0.00000000
Si      -0.26914338      -2.02991321       1.19734999       0.00000000
Si       1.57543849       1.31077486       1.20414781       0.00000000
Si      -0.28706238       0.88622488      -2.24094670       0.00000000
H        2.24689601      -0.95254147      -1.63369420       0.00000000
H        0.80842384      -1.86375521      -2.18227539       0.00000000
H        1.61530012      -2.61115670      -0.52932556       0.00000000
H        1.04264146      -2.48999168       1.80358136       0.00000000
Si      -2.15096420       2.86856966      -0.51336673       0.00000000
Si      -2.41360787      -0.08361657      -2.92186657       0.00000000
