10
Lattice="16.290000149 0.0 0.0 0.0 16.290000149 0.0 0.0 0.0 29.1751946751" Properties=species:S:1:pos:R:3:initial_magmoms:R:1 pbc="T T T"
Si      -0.91937503       1.04353741      -1.83885417       0.00000000
Si       1.07745319       1.75857068       1.06162698       0.00000000
Si       1.35280306      -1.53090163      -1.15682564       0.00000000
Si      -1.93852631      -1.04169664       0.90238877       0.00000000
H        0.53020692      -1.27340560       2.38440114       0.00000000
Si       0.71869852      -2.66166222       1.77954100       0.00000000
Si      -1.68471182      -1.00271467      -2.72108288       0.00000000
Si      -0.44118207      -2.86019660      -1.78064966       0.00000000
Si      -2.21809529       2.53936667      -0.51462126       0.00000000
Si      -1.17276598      -3.20554949       0.47602248       0.00000000
