10
Lattice="16.290000149 0.0 0.0 0.0 16.290000149 0.0 0.0 0.0 29.1751946751" Properties=species:S:1:pos:R:3:initial_magmoms:R:1 pbc="T T T"
H       -0.60010732      -0.08679312      -1.40113872       0.00000000
Si       0.47899116      -2.02716020       1.06098513       0.00000000
Si      -1.71549992       0.44097030       1.52667959       0.00000000
H        1.51767415      -0.84269800      -1.70307281       0.00000000
Si       1.90234622       1.49499847       0.31865148       0.00000000
Si       0.79819372      -0.92185111      -3.02800593       0.00000000
Si      -2.57318471       2.27486594       0.39678265       0.00000000
Si      -0.33516675       1.47264859       3.15760214       0.00000000
Si       2.07330977      -1.21077055       2.62177052       0.00000000
Si       0.92960515       2.94967920       1.82625049       0.00000000
