10
Lattice="16.290000149 0.0 0.0 0.0 16.290000149 0.0 0.0 0.0 29.1751946751" Properties=species:S:1:pos:R:3:initial_magmoms:R:1 pbc="T T T"
Si      -1.33699199      -1.35053875       1.36977539       0.00000000
Si       1.35143470      -1.36140418      -1.36105201       0.00000000
Si      -1.40596711       1.33850859      -1.33251867       0.00000000
Si       1.34351776       1.34645322       1.38844751       0.00000000
Si       2.65165364       2.69311169      -0.03468931       0.00000000
Si      -2.71618366       0.04526958       2.66737135       0.00000000
Si      -0.05887206       2.69224832      -2.70882930       0.00000000
Si       2.71526609      -0.01151703      -2.71078404       0.00000000
Si      -2.71667096      -2.71041167       0.01321636       0.00000000
Si      -0.07539012       2.70164765       2.72452555       0.00000000
