10
Lattice="16.290000149 0.0 0.0 0.0 16.290000149 0.0 0.0 0.0 29.1751946751" Properties=species:S:1:pos:R:3:initial_magmoms:R:1 pbc="T T T"
Si      -0.22491603       2.13625433       0.90574392       0.00000000
Si      -1.81630244      -0.75294010      -1.38229155       0.00000000
Si       0.34060761      -1.94826773       1.37563960       0.00000000
Si       2.12555180       0.58800385      -1.00009650       0.00000000
H        2.20796291      -0.23944671       1.57467278       0.00000000
H       -1.35819505       2.20569860       1.90826196       0.00000000
H        2.86109418      -0.65891422       1.61671424       0.00000000
Si       1.95128138      -2.73538424      -0.14806411       0.00000000
H       -1.05769342      -1.11320974       3.00250681       0.00000000
H        1.06008805      -1.86911462       2.70057272       0.00000000
