10
Lattice="16.290000149 0.0 0.0 0.0 16.290000149 0.0 0.0 0.0 29.1751946751" Properties=species:S:1:pos:R:3:initial_magmoms:R:1 pbc="T T T"
Si      -2.07128981       0.72366371      -0.83843674       0.00000000
Si      -0.78459157      -1.50314022       1.69881324       0.00000000
Si       1.04977648      -0.67314842      -2.06580801       0.00000000
Si       0.92533717       2.07793939       0.81891854       0.00000000
H       -1.38922750       2.27845300       1.75337085       0.00000000
Si      -1.31486365       1.30929247      -2.99194539       0.00000000
Si      -2.66603771       2.24191453       0.92447439       0.00000000
H        0.37594062      -3.58755976      -0.50718158       0.00000000
Si      -2.33489459      -2.81344267       0.52010620       0.00000000
Si      -3.36061074      -1.26315593      -0.95715061       0.00000000
