10
Lattice="16.290000149 0.0 0.0 0.0 16.290000149 0.0 0.0 0.0 29.1751946751" Properties=species:S:1:pos:R:3:initial_magmoms:R:1 pbc="T T T"
Si       1.34864911       1.40729311      -1.31736215       0.00000000
Si       1.37536471      -1.34705269       1.35970995       0.00000000
Si      -1.35234694       1.36910935       1.36286087       0.00000000
Si      -1.36083403      -1.36552555      -1.36677618       0.00000000
Si       2.73160497       0.05115060      -2.65295588       0.00000000
Si      -0.07504803       2.79922476      -2.59492934       0.00000000
Si      -2.70666660      -2.69364926       0.01671739       0.00000000
Si       2.68832243       2.72114678       0.08927610       0.00000000
Si       0.02042766      -2.69104286       2.73485357       0.00000000
Si      -2.69868450       0.02176344       2.73012719       0.00000000
