10
Lattice="16.290000149 0.0 0.0 0.0 16.290000149 0.0 0.0 0.0 29.1751946751" Properties=species:S:1:pos:R:3:initial_magmoms:R:1 pbc="T T T"
Si       1.29582064      -1.33448463      -1.38855546       0.00000000
Si      -1.38203710      -1.42126146       1.22845950       0.00000000
Si      -1.22350607       1.35516707      -1.45340609       0.00000000
Si       1.36671472       1.31087944       1.37343104       0.00000000
Si       2.52745868       0.17075699      -2.71585440       0.00000000
Si      -2.65086358       2.66275561      -0.10037142       0.00000000
Si      -2.64829412      -0.06298496       2.67056020       0.00000000
Si       0.01852173      -2.76460003       2.56923475       0.00000000
Si       2.71803539       2.63270055       0.02173844       0.00000000
Si       0.00998577       2.70641281       2.65813156       0.00000000
