10
Lattice="16.290000149 0.0 0.0 0.0 16.290000149 0.0 0.0 0.0 29.1751946751" Properties=species:S:1:pos:R:3:initial_magmoms:R:1 pbc="T T T"
Si       1.34882830       1.01975401      -1.63249802       0.00000000
Si       1.43477434      -1.62677790       0.92631243       0.00000000
Si      -1.83485675      -1.18611726      -1.00435608       0.00000000
Si      -0.10723707       1.73180621       1.80553610       0.00000000
H       -2.25492698       1.47963700       0.49629924       0.00000000
Si       2.77557168       2.29089530      -0.22771239       0.00000000
Si       0.62951077       0.40664727       3.59558017       0.00000000
Si       2.62407467      -0.47809521       2.61861960       0.00000000
Si      -2.89813764       2.32169969      -0.58341637       0.00000000
Si       0.14473665      -3.06678801       2.20552802       0.00000000
