10
Lattice="16.290000149 0.0 0.0 0.0 16.290000149 0.0 0.0 0.0 29.1751946751" Properties=species:S:1:pos:R:3:initial_magmoms:R:1 pbc="T T T"
Si      -1.51320581      -1.37857384      -1.16492935       0.00000000
Si       1.36056199      -1.34643367       1.37418668       0.00000000
Si      -1.40191253       1.34904007       1.36865798       0.00000000
Si       1.48397503       1.20080107      -1.43835460       0.00000000
Si      -2.64795093       0.11777670      -2.55433497       0.00000000
Si      -0.25395296      -2.80336242      -2.49277531       0.00000000
Si       2.65863065       2.66879072       0.01099905       0.00000000
Si       0.12986062       2.61360020      -2.75059651       0.00000000
Si      -0.01865205      -2.69879690       2.74035018       0.00000000
Si       2.67444824       0.00003258       2.77072156       0.00000000
