10
Lattice="16.290000149 0.0 0.0 0.0 16.290000149 0.0 0.0 0.0 29.1751946751" Properties=species:S:1:pos:R:3:initial_magmoms:R:1 pbc="T T T"
Si      -1.30864087      -1.31398562      -1.44449306       0.00000000
Si      -1.32356251       1.39437351       1.36437798       0.00000000
Si       1.26109036      -1.39186811       1.43054732       0.00000000
Si       1.36647037       1.35962694      -1.37674826       0.00000000
Si      -2.66302406      -2.66965572      -0.11168265       0.00000000
Si       2.66105297       0.02506379       2.68811491       0.00000000
Si       2.69094512      -2.67418434       0.01887635       0.00000000
Si      -2.67082697       2.72785664      -0.04300424       0.00000000
Si       0.07607430       2.76533993       2.67813700       0.00000000
Si      -2.68120370       0.03219230      -2.78305100       0.00000000
