10
Lattice="16.290000149 0.0 0.0 0.0 16.290000149 0.0 0.0 0.0 29.1751946751" Properties=species:S:1:pos:R:3:initial_magmoms:R:1 pbc="T T T"
Si      -1.36876726       1.34848621      -1.34109617       0.00000000
Si      -1.37505520      -1.34250778       1.34165050       0.00000000
Si       1.35408997      -1.35332434      -1.36677034       0.00000000
Si       1.35400852       1.36256077       1.36175221       0.00000000
Si       0.01353699       2.69192252      -2.67457762       0.00000000
Si      -0.01262475      -2.73636165       2.64639438       0.00000000
Si       2.71788878      -2.69180849      -0.00253824       0.00000000
Si      -2.72710892       0.02777445       2.69228696       0.00000000
Si       2.71096553       0.01668096      -2.71128002       0.00000000
Si      -2.72911260      -2.69693984      -0.01832202       0.00000000
