10
Lattice="16.290000149 0.0 0.0 0.0 16.290000149 0.0 0.0 0.0 29.1751946751" Properties=species:S:1:pos:R:3:initial_magmoms:R:1 pbc="T T T"
H       -1.13327902       0.06944427       1.00251804       0.00000000
Si       0.22491603      -2.13625433      -0.90574392       0.00000000
Si       2.05799717       0.69662557       0.90947834       0.00000000
Si      -0.22444362       1.51607773      -1.83281490       0.00000000
H       -0.43766343       0.93744064       2.60756220       0.00000000
H       -2.07089885       1.82847107       1.47778196       0.00000000
Si       2.35046783      -1.54825048      -1.90584042       0.00000000
H        2.43287894      -2.37570104       0.66892886       0.00000000
Si       3.32045589       0.44909901      -1.02717108       0.00000000
Si       1.71866018       2.81510751       1.84778178       0.00000000
