10
Lattice="16.290000149 0.0 0.0 0.0 16.290000149 0.0 0.0 0.0 29.1751946751" Properties=species:S:1:pos:R:3:initial_magmoms:R:1 pbc="T T T"
Si       0.97274107      -1.45468072      -1.50759901       0.00000000
Si      -1.69178168       0.88800049      -1.34334266       0.00000000
Si      -1.26477190      -1.47703060       1.33135166       0.00000000
Si       1.53389899       1.26328951       1.27988662       0.00000000
H       -1.13459851       1.15043239      -2.71658990       0.00000000
Si      -0.92960515      -2.94967920      -1.82625049       0.00000000
Si      -2.64510506      -2.50870889      -0.29957090       0.00000000
Si      -2.56596824      -0.04592151       2.63079382       0.00000000
Si       0.21579363       2.60973947       2.63160548       0.00000000
H        0.11489337       2.96280894      -2.25827677       0.00000000
