10
Lattice="16.290000149 0.0 0.0 0.0 16.290000149 0.0 0.0 0.0 29.1751946751" Properties=species:S:1:pos:R:3:initial_magmoms:R:1 pbc="T T T"
Si      -0.97977835       1.85917772      -0.89471570       0.00000000
Si      -1.76585231      -1.48349773       0.33011733       0.00000000
Si       0.38138148       0.64594738       2.22358746       0.00000000
Si       1.75708829      -0.97080256      -1.26127284       0.00000000
H       -0.39060162      -1.22297176      -2.57050970       0.00000000
Si       1.87623335      -1.21569013       2.57351475       0.00000000
Si       2.49383612      -2.29596149       0.52877123       0.00000000
Si      -2.46571958       0.84558133      -2.36491211       0.00000000
Si      -1.07932654      -3.53510108      -0.43246391       0.00000000
Si      -3.58673223      -0.59623030      -0.81538834       0.00000000
