10
Lattice="16.290000149 0.0 0.0 0.0 16.290000149 0.0 0.0 0.0 29.1751946751" Properties=species:S:1:pos:R:3:initial_magmoms:R:1 pbc="T T T"
Si      -1.56872701       1.27500202      -1.12665849       0.00000000
Si      -1.39776346      -1.43076700       1.17646055       0.00000000
Si       1.07012269      -1.10322397      -1.86934225       0.00000000
Si       1.57076326       1.11865060       1.46319436       0.00000000
Si       2.09158715      -2.43915059      -0.24933121       0.00000000
Si       0.30346641      -3.02795265       1.19192340       0.00000000
Si       0.04487895       2.31731768      -2.51723580       0.00000000
Si       1.82700497       0.77116861      -3.14934556       0.00000000
Si      -2.54146808       2.72968274       0.38094052       0.00000000
Si      -2.99208207      -2.24715665      -0.38432484       0.00000000
