10
Lattice="16.290000149 0.0 0.0 0.0 16.290000149 0.0 0.0 0.0 29.1751946751" Properties=species:S:1:pos:R:3:initial_magmoms:R:1 pbc="T T T"
Si      -1.49055130       1.26477190       1.28426289       0.00000000
Si       1.29544988       1.35852085      -1.44528079       0.00000000
Si      -1.42674337      -1.27114129      -1.40478562       0.00000000
Si       1.28851197      -1.34781832       1.50083036       0.00000000
H        1.46658220       1.31569444       2.93000645       0.00000000
Si      -2.88280875      -0.55908910       2.03324849       0.00000000
Si      -2.77557168      -2.29089530       0.22771239       0.00000000
Si       2.50576366      -2.63374605      -0.10465142       0.00000000
Si       2.60520597       0.35129385       2.63930481       0.00000000
Si       2.65369641       2.76975615      -0.13260126       0.00000000
