10
Lattice="16.290000149 0.0 0.0 0.0 16.290000149 0.0 0.0 0.0 29.1751946751" Properties=species:S:1:pos:R:3:initial_magmoms:R:1 pbc="T T T"
Si       1.32901152      -1.35943309       1.36493231       0.00000000
Si      -1.34300463      -1.36008469      -1.35381656       0.00000000
Si      -1.32052443       1.33604065       1.40668201       0.00000000
Si       1.35057948       1.36560700      -1.36329850       0.00000000
Si       2.63946058       0.07058457       2.68747306       0.00000000
Si      -2.66053984       2.70128927       0.03107158       0.00000000
Si      -2.67850771       0.01443294      -2.70862507       0.00000000
Si      -2.69650816      -2.70837542       0.01966408       0.00000000
Si       2.70709666      -2.70510113       0.00761473       0.00000000
Si       0.02272618      -2.71103069      -2.70252746       0.00000000
