10
Lattice="16.290000149 0.0 0.0 0.0 16.290000149 0.0 0.0 0.0 29.1751946751" Properties=species:S:1:pos:R:3:initial_magmoms:R:1 pbc="T T T"
Si       1.41820741      -1.16546806      -1.46981713       0.00000000
Si      -1.31016073      -1.40695102       1.36595344       0.00000000
Si      -1.83354540       1.19531786      -0.91887276       0.00000000
Si       1.42056946       1.46984997       1.25307461       0.00000000
H        0.81357148       2.61612515      -1.41525952       0.00000000
Si      -0.46323873       2.57958668      -2.24415597       0.00000000
Si      -2.75722914       2.01223856       1.08108684       0.00000000
Si      -0.13209561      -2.47577051      -2.64852417       0.00000000
Si      -2.48050048       0.18508649       2.65190850       0.00000000
Si       2.80450272      -2.52252281      -0.08723383       0.00000000
