10
Lattice="16.290000149 0.0 0.0 0.0 16.290000149 0.0 0.0 0.0 29.1751946751" Properties=species:S:1:pos:R:3:initial_magmoms:R:1 pbc="T T T"
Si      -0.85768480       1.83389564      -1.12989694       0.00000000
Si       1.71549992      -0.44097030      -1.52667959       0.00000000
Si       1.38033316       1.03167829       1.63092256       0.00000000
Si      -1.39059586      -1.73584613       0.91729730       0.00000000
H        1.11539260      -0.52776342      -2.92781831       0.00000000
H       -1.99544357      -1.16998039      -2.19184485       0.00000000
Si       2.19449108      -2.46813050      -0.46569446       0.00000000
Si       0.32575113      -3.36981459       0.80964083       0.00000000
Si       2.64510506       2.50870889       0.29957090       0.00000000
Si      -2.55878435       2.62195697       0.26033026       0.00000000
