10
Lattice="16.290000149 0.0 0.0 0.0 16.290000149 0.0 0.0 0.0 29.1751946751" Properties=species:S:1:pos:R:3:initial_magmoms:R:1 pbc="T T T"
Si      -1.28849829      -1.40985064      -1.31836870       0.00000000
Si       1.41660285      -1.22372110       1.37765269       0.00000000
Si      -1.34171772       1.30204342       1.42237827       0.00000000
Si       1.46540769       1.38220651      -1.21508851       0.00000000
Si       2.08116969       0.65404351       2.67262288       0.00000000
Si       0.42924965       2.30843963       2.57497351       0.00000000
Si      -2.61070873      -0.03559365      -2.65307550       0.00000000
Si       0.11844622       2.73491184      -2.60134788       0.00000000
Si      -2.60841184      -2.73621504       0.12250664       0.00000000
Si       0.10249016      -2.71160084       2.64767809       0.00000000
