10
Lattice="16.290000149 0.0 0.0 0.0 16.290000149 0.0 0.0 0.0 29.1751946751" Properties=species:S:1:pos:R:3:initial_magmoms:R:1 pbc="T T T"
Si       1.25524225      -1.12008575       1.59354913       0.00000000
Si      -1.79398514      -1.32929496      -0.62382401       0.00000000
Si       1.21498966       1.31359303      -1.50225995       0.00000000
Si      -1.35280306       1.53090163       1.15682564       0.00000000
Si      -0.63410455      -1.13076059       2.93636664       0.00000000
H        3.06908490      -0.54382211      -0.78224532       0.00000000
Si      -0.20667123      -2.87541309      -1.69081923       0.00000000
Si       2.74815561       2.03067884       0.11106997       0.00000000
Si      -2.52556904      -1.67464785       1.63284812       0.00000000
Si      -3.03751488       0.52818696      -1.56425724       0.00000000
