10
Lattice="16.290000149 0.0 0.0 0.0 16.290000149 0.0 0.0 0.0 29.1751946751" Properties=species:S:1:pos:R:3:initial_magmoms:R:1 pbc="T T T"
Si      -1.34947598      -1.41063256       1.30483141       0.00000000
Si       1.33834147      -1.36304947      -1.37280961       0.00000000
Si      -1.43894066       1.34967538      -1.28627598       0.00000000
Si       1.37967897       1.35987292       1.35655903       0.00000000
Si      -2.58705987      -0.04421106       2.72227906       0.00000000
Si      -0.05997585       2.67659363      -2.67513195       0.00000000
Si       0.00048730       2.75568126       2.65415499       0.00000000
Si       2.70868886      -2.70516629      -0.01575461       0.00000000
Si       2.69870309      -0.01301571      -2.72627607       0.00000000
Si      -0.02726553      -2.78488956       2.63953821       0.00000000
