10
Lattice="16.290000149 0.0 0.0 0.0 16.290000149 0.0 0.0 0.0 29.1751946751" Properties=species:S:1:pos:R:3:initial_magmoms:R:1 pbc="T T T"
Si      -1.31255047      -1.36215352      -1.34410705       0.00000000
Si       1.31719312      -1.38828268       1.34433462       0.00000000
Si      -1.41667615       1.33335280       1.30205976       0.00000000
Si       1.30790782       1.29138976      -1.46901190       0.00000000
Si      -0.04383639       2.65944026       2.66684619       0.00000000
Si       2.69741225      -0.02482596       2.64808654       0.00000000
Si       2.68117112       2.69669549      -0.15684585       0.00000000
Si       2.64419282      -2.74647774      -0.02150212       0.00000000
Si      -2.76731265      -0.04018743       2.65138334       0.00000000
Si      -2.76908826       2.65184912      -0.10561420       0.00000000
