10
Lattice="16.290000149 0.0 0.0 0.0 16.290000149 0.0 0.0 0.0 29.1751946751" Properties=species:S:1:pos:R:3:initial_magmoms:R:1 pbc="T T T"
Si       1.28849829       1.40985064       1.31836870       0.00000000
Si      -1.32221044       1.37425699      -1.33470681       0.00000000
Si       1.40454499      -1.31821939      -1.31340891       0.00000000
Si      -1.31991355      -1.32636439       1.44087534       0.00000000
Si      -2.55979433       2.74067850       0.08274085       0.00000000
Si       0.01299942      -2.69358410      -2.62500897       0.00000000
Si       2.77441509      -2.55723680       0.13128838       0.00000000
Si      -2.71018361       0.01550808      -2.66486228       0.00000000
Si       2.73595440       0.07972326      -2.65529282       0.00000000
Si       2.70510113       0.18612954       2.69602139       0.00000000
