10
Lattice="16.290000149 0.0 0.0 0.0 16.290000149 0.0 0.0 0.0 29.1751946751" Properties=species:S:1:pos:R:3:initial_magmoms:R:1 pbc="T T T"
Si      -1.37634211      -1.32007645       1.36347355       0.00000000
Si      -1.37344249       1.35220033      -1.34506400       0.00000000
Si       1.29096622      -1.36792018      -1.41190437       0.00000000
Si       1.40846599       1.32548473       1.35617975       0.00000000
Si       0.04318479      -2.69299766       2.61596466       0.00000000
Si       0.04404816       2.69491988       2.70031014       0.00000000
Si      -0.00961110       2.70208748      -2.69479603       0.00000000
Si       2.67978647      -0.00853596      -2.72516741       0.00000000
Si       2.61084719      -2.80868925      -0.13607311       0.00000000
Si      -2.73285929      -2.70197345       0.01344976       0.00000000
