10
Lattice="16.290000149 0.0 0.0 0.0 16.290000149 0.0 0.0 0.0 29.1751946751" Properties=species:S:1:pos:R:3:initial_magmoms:R:1 pbc="T T T"
Si      -1.23098644       1.20051388       1.59716686       0.00000000
Si      -1.93854260      -0.85279780      -1.06481875       0.00000000
Si       1.29736819      -1.53243289       1.31768016       0.00000000
Si       1.47383190       1.30774443      -1.37687663       0.00000000
H       -0.86664430      -2.56958462      -1.85158622       0.00000000
Si      -2.64337832       2.54768923       0.34257514       0.00000000
Si       2.64417165      -0.28429308      -2.66283169       0.00000000
Si       2.81341660       2.52667025       0.10674620       0.00000000
Si      -3.67978071       0.69542011      -0.61503644       0.00000000
Si       2.65488558      -0.24975828       2.78861179       0.00000000
