10
Lattice="16.290000149 0.0 0.0 0.0 16.290000149 0.0 0.0 0.0 29.1751946751" Properties=species:S:1:pos:R:3:initial_magmoms:R:1 pbc="T T T"
Si       1.30437289      -1.38078928       1.37438507       0.00000000
Si      -1.37316556      -1.38362374      -1.30941191       0.00000000
Si      -1.32357880       1.37075464       1.37313054       0.00000000
Si       1.35350353       1.34829073      -1.37348064       0.00000000
Si      -2.68291415       2.69584841      -0.01875965       0.00000000
Si       2.68351851      -0.01936881       2.70830415       0.00000000
Si      -0.00169416      -2.72337851      -2.67358566       0.00000000
Si      -2.69641856      -0.01969461      -2.70322766       0.00000000
Si       2.69650816       2.70837542      -0.01966408       0.00000000
Si      -2.66356163       0.02208924       2.74547334       0.00000000
