10
Lattice="16.290000149 0.0 0.0 0.0 16.290000149 0.0 0.0 0.0 29.1751946751" Properties=species:S:1:pos:R:3:initial_magmoms:R:1 pbc="T T T"
Si       1.33958470       1.21892581       1.48362283       0.00000000
Si       1.17033975      -1.59203752      -1.28595506       0.00000000
Si      -1.47383190      -1.30774443       1.37687663       0.00000000
Si      -0.27672866       1.82715207      -1.57082166       0.00000000
Si       2.48050048      -0.18508649      -2.65190850       0.00000000
Si       2.67729997       2.62111038       0.12220906       0.00000000
Si       0.64695508       1.01023136      -3.57078125       0.00000000
Si       2.52604732      -2.82782951       0.17284377       0.00000000
Si      -0.08777280       2.52651435       2.83665750       0.00000000
Si      -2.52028522       2.33575845      -1.84506849       0.00000000
