10
Lattice="16.290000149 0.0 0.0 0.0 16.290000149 0.0 0.0 0.0 29.1751946751" Properties=species:S:1:pos:R:3:initial_magmoms:R:1 pbc="T T T"
Si      -0.38138148      -0.64594738      -2.22358746       0.00000000
Si      -1.99231589      -0.60079150       1.17015871       0.00000000
Si       0.77116861       2.03897045       1.00937421       0.00000000
Si       1.49485186      -1.86163751       0.34992728       0.00000000
H       -2.25235316       2.07949997      -0.26966632       0.00000000
Si       1.79263307       0.70304383       2.62938524       0.00000000
H        2.75286342       1.94900078      -0.04907268       0.00000000
Si      -2.14723379      -2.12944511      -1.89347013       0.00000000
H       -0.45134703       3.28970037      -1.35352481       0.00000000
Si      -1.07294086      -1.64432890       3.00901288       0.00000000
