10
Lattice="16.290000149 0.0 0.0 0.0 16.290000149 0.0 0.0 0.0 29.1751946751" Properties=species:S:1:pos:R:3:initial_magmoms:R:1 pbc="T T T"
Si       1.39996261       1.41693191       1.25756759       0.00000000
Si      -1.26109036       1.39186811      -1.43054732       0.00000000
Si       1.42985476      -1.28231623      -1.41167097       0.00000000
Si      -1.29740077      -1.59031126       1.27553951       0.00000000
Si      -2.52749126      -2.72780939      -0.34998564       0.00000000
Si       0.28173555      -2.67620267       2.59688408       0.00000000
Si      -2.58465287       2.78624163      -0.06616934       0.00000000
Si       2.86928272       0.12368965       2.52876000       0.00000000
Si      -2.56973123       0.07788249      -2.87504038       0.00000000
Si       2.86879542      -2.63199161      -0.12539499       0.00000000
