10
Lattice="16.290000149 0.0 0.0 0.0 16.290000149 0.0 0.0 0.0 29.1751946751" Properties=species:S:1:pos:R:3:initial_magmoms:R:1 pbc="T T T"
Si       1.31988097      -1.44076906       1.27583126       0.00000000
Si      -1.34866540      -1.36179514      -1.34768977       0.00000000
Si       1.38882025       1.35938422      -1.31326304       0.00000000
Si      -1.29096622       1.36792018       1.41190437       0.00000000
Si       2.74639629      -0.05131350       2.45488841       0.00000000
Si       0.01933623       2.70115895      -2.66649609       0.00000000
Si      -2.66440871       2.72012051       0.06684037       0.00000000
Si      -2.71591769      -0.00524538      -2.67589051       0.00000000
Si      -0.06421518      -2.77633731       2.61619806       0.00000000
Si       2.74087397      -0.01089801      -2.66389950       0.00000000
