10
Lattice="16.290000149 0.0 0.0 0.0 16.290000149 0.0 0.0 0.0 29.1751946751" Properties=species:S:1:pos:R:3:initial_magmoms:R:1 pbc="T T T"
Si      -1.39318597      -1.34105797      -1.32755888       0.00000000
Si      -1.36036162       1.35366643       1.35194935       0.00000000
Si       1.33015996      -1.37404522       1.36814158       0.00000000
Si       1.35907471       1.34325712      -1.37432672       0.00000000
Si      -0.03645702      -2.73659133      -2.61225941       0.00000000
Si       2.70861977       2.69827562      -0.01473347       0.00000000
Si      -2.70202558       2.70889670      -0.01563790       0.00000000
Si       2.70366761      -0.02694366       2.71084239       0.00000000
Si      -0.01042560       2.71355564       2.70109787       0.00000000
Si      -2.72727834      -0.01309716       2.69497108       0.00000000
