10
Lattice="10.86 0.0 0.0 0.0 10.86 0.0 0.0 0.0 10.86" Properties=species:S:1:pos:R:3:initial_magmoms:R:1 pbc="T T T"
Si       1.14786942       1.36972836      -1.30352580       0.00000000
Si      -1.35067992      -1.39286016      -1.33217448       0.00000000
Si      -1.34826900       1.42387632       1.41379824       0.00000000
Si       2.63940354       2.63701434       0.03070122       0.00000000
Si      -0.07559646       2.63701434      -2.68429878       0.00000000
Si       2.63940354      -0.07798566      -2.68429878       0.00000000
Si      -0.07559646       2.63701434       2.74570122       0.00000000
Si      -2.79059646       2.63701434       0.03070122       0.00000000
Si      -2.79059646      -0.07798566      -2.68429878       0.00000000
Si      -0.07559646      -2.79298566      -2.68429878       0.00000000
