10
Lattice="16.28999089631971 0.0 0.0 0.0 16.28999089631971 0.0 0.0 0.0 34.40246978574605" Properties=species:S:1:pos:R:3:initial_magmoms:R:1 pbc="T T T"
Si       1.35283563      -1.35791159      -1.35793505       0.00000000
Si       1.33511211       1.35788553       1.37733805       0.00000000
Si      -1.36040722       1.35868374      -1.35800385       0.00000000
Si      -1.35164483      -1.35662305       1.39557137       0.00000000
Si      -2.63671634       0.21100437       2.70307237       0.00000000
Si       2.71404432      -2.71219445       0.00292421       0.00000000
Si       2.71228500       0.00039096      -2.71521645       0.00000000
Si      -0.00306252      -2.71385644      -2.71518204       0.00000000
Si       2.71282257       2.71669959      -0.00048163       0.00000000
Si      -2.71399708      -2.71698602       0.00536679       0.00000000
