10
Lattice="16.28999089631971 0.0 0.0 0.0 16.28999089631971 0.0 0.0 0.0 34.40246978574605" Properties=species:S:1:pos:R:3:initial_magmoms:R:1 pbc="T T T"
Si       1.35718506      -1.35719646      -1.35762542       0.00000000
Si      -1.35731538       1.35795069      -1.35762542       0.00000000
Si       1.35713619       1.35782037       1.35810706       0.00000000
Si      -1.35944937      -1.35830255       1.35728140       0.00000000
Si      -0.00057015      -2.71285948      -2.71463160       0.00000000
Si      -2.71228500      -0.00039096       2.71521645       0.00000000
Si      -2.71306692       0.00301365      -2.71473481       0.00000000
Si       2.71463076      -2.71481145      -0.00044723       0.00000000
Si      -2.71534752      -2.71424740       0.00003440       0.00000000
Si       2.71538010       0.00131949      -2.71452840       0.00000000
