10
Lattice="16.28999089631971 0.0 0.0 0.0 16.28999089631971 0.0 0.0 0.0 34.40246978574605" Properties=species:S:1:pos:R:3:initial_magmoms:R:1 pbc="T T T"
Si      -1.07435808      -0.99051345       1.94835056       0.00000000
Si       1.28301669      -1.36394541      -1.57639085       0.00000000
Si       1.50760692       1.29380948       1.46207138       0.00000000
Si      -1.40922998       1.34969070      -1.56042810       0.00000000
Si       0.87234579      -2.20216365       2.78133803       0.00000000
Si      -1.53762776       1.07796861       3.25901659       0.00000000
Si       2.55621051       2.81400694      -0.00746534       0.00000000
Si       2.53415385      -2.86479198      -0.24625302       0.00000000
Si       2.65645917      -0.00588069      -2.95307525       0.00000000
Si      -2.69430149       2.91731812      -0.25292710       0.00000000
