10
Lattice="16.28999089631971 0.0 0.0 0.0 16.28999089631971 0.0 0.0 0.0 34.40246978574605" Properties=species:S:1:pos:R:3:initial_magmoms:R:1 pbc="T T T"
Si       1.49809356      -0.12000843       1.78851660       0.00000000
Si      -2.11936158       0.37688544       0.92236513       0.00000000
Si       0.05918157      -2.22068538      -0.76755393       0.00000000
Si       0.78991839       1.93973175      -1.28634347       0.00000000
Si       3.42311544      -0.08944839       0.44203758       0.00000000
Si      -1.30821732       1.92523365       2.59711270       0.00000000
Si       1.05696036       1.91234826       2.89675838       0.00000000
Si       2.98229175       2.15950014      -0.22495788       0.00000000
Si       0.42246486      -1.92547800      -3.13293147       0.00000000
Si      -3.57708852       0.50635836      -1.00324538       0.00000000
