10
Lattice="16.28999089631971 0.0 0.0 0.0 16.28999089631971 0.0 0.0 0.0 34.40246978574605" Properties=species:S:1:pos:R:3:initial_magmoms:R:1 pbc="T T T"
Si       0.52932726      -2.28638295       0.02222401       0.00000000
Si       0.02966409       0.93603969       2.15607279       0.00000000
Si      -2.33399862       0.30244014      -0.33834848       0.00000000
Si       1.71046629       1.20067074      -1.25011765       0.00000000
Si      -2.06158095       2.50545087      -1.41074287       0.00000000
Si       2.36374416       1.17608913       2.39207387       0.00000000
Si       0.78952743      -2.65025268      -2.44329917       0.00000000
Si      -1.45867176      -3.29971869       0.78272543       0.00000000
Si      -1.16489790       3.05406549       1.91914285       0.00000000
Si      -0.42570657      -0.84641211       3.67955261       0.00000000
