10
Lattice="16.28999089631971 0.0 0.0 0.0 16.28999089631971 0.0 0.0 0.0 34.40246978574605" Properties=species:S:1:pos:R:3:initial_magmoms:R:1 pbc="T T T"
Si       0.86157810       0.57883257       2.10856295       0.00000000
Si      -2.33408007      -0.24004944      -0.23600107       0.00000000
Si       0.70695342       2.00230164      -1.12712875       0.00000000
Si       1.11803157      -1.91027943      -1.02230436       0.00000000
Si       2.47327812       0.96448203      -2.28143546       0.00000000
Si      -2.36374416      -1.17608913      -2.39207387       0.00000000
Si       1.45021725      -0.99781137      -3.13678455       0.00000000
Si      -2.78945073      -2.02250124       1.28747875       0.00000000
Si      -0.65327787       0.02458161      -3.64219151       0.00000000
Si       3.22815672       0.74099952       1.69163919       0.00000000
