10
Lattice="16.28999089631971 0.0 0.0 0.0 16.28999089631971 0.0 0.0 0.0 34.40246978574605" Properties=species:S:1:pos:R:3:initial_magmoms:R:1 pbc="T T T"
Si       1.35749457      -1.35737728      -1.35659335       0.00000000
Si       1.35770634       1.35786924       1.35724700       0.00000000
Si      -1.35754344      -1.35742289       1.35800385       0.00000000
Si      -1.35812988       1.35860229      -1.35683417       0.00000000
Si       2.71306692      -2.71409666       0.00010321       0.00000000
Si       0.00135207      -2.71318729      -2.71418437       0.00000000
Si      -0.00019548      -2.71373222       2.71394355       0.00000000
Si       2.71306692       0.00003258       2.71476921       0.00000000
Si      -2.71495656       0.00143352      -2.71390915       0.00000000
Si       2.71523349       0.00066789      -2.71408116       0.00000000
