10
Lattice="16.28999089631971 0.0 0.0 0.0 16.28999089631971 0.0 0.0 0.0 34.40246978574605" Properties=species:S:1:pos:R:3:initial_magmoms:R:1 pbc="T T T"
Si      -1.92502188      -0.03056004       1.34647902       0.00000000
Si       0.29543544      -1.11855285      -2.05186765       0.00000000
Si       2.00458224      -0.67147380       1.05467711       0.00000000
Si      -0.44082369       2.24894853      -0.66699546       0.00000000
Si      -3.42311544       0.08944839      -0.44203758       0.00000000
Si       2.11696695       0.88422120       2.77776017       0.00000000
Si       1.67423733       2.89634571      -1.60449769       0.00000000
Si       3.66200829      -0.47126970      -0.59303011       0.00000000
Si      -0.89731836       3.38185287       1.32091797       0.00000000
Si      -2.63319705       2.02918014      -1.72838105       0.00000000
