10
Lattice="16.28999089631971 0.0 0.0 0.0 16.28999089631971 0.0 0.0 0.0 34.40246978574605" Properties=species:S:1:pos:R:3:initial_magmoms:R:1 pbc="T T T"
Si       0.11238471       1.55569500       1.72308306       0.00000000
Si       1.65742605       0.20020410      -1.64770721       0.00000000
Si      -2.00458224       0.67147380      -1.05467711       0.00000000
Si       0.24236262      -2.31023151       0.53406424       0.00000000
Si      -1.70914680      -0.44707905      -3.10654476       0.00000000
Si      -0.83663811       0.42008652       3.59210149       0.00000000
Si       1.50060222       2.16015174      -2.79158997       0.00000000
Si      -0.06704964      -3.58290405      -1.37465466       0.00000000
Si       2.44801233      -2.73088818       1.23477414       0.00000000
Si       0.53895465      -0.02093265      -3.85748229       0.00000000
