10
Lattice="16.28999089631971 0.0 0.0 0.0 16.28999089631971 0.0 0.0 0.0 34.40246978574605" Properties=species:S:1:pos:R:3:initial_magmoms:R:1 pbc="T T T"
Si      -1.34662914      -1.33869591       1.35573329       0.00000000
Si       1.35211887      -1.34711784      -1.35707498       0.00000000
Si      -1.36559070       1.36528119      -1.35600851       0.00000000
Si       1.35866745       1.36658439       1.38432176       0.00000000
Si      -2.47528179       0.19179846       2.70606538       0.00000000
Si       2.70282051      -2.70345582       0.00581402       0.00000000
Si      -0.00607617      -2.70684414      -2.71463160       0.00000000
Si       2.70891297       0.00762372      -2.71528525       0.00000000
Si       2.69983944       2.72969901      -0.00123849       0.00000000
Si      -2.72051145      -2.70927135       0.00247698       0.00000000
