10
Lattice="16.28999089631971 0.0 0.0 0.0 16.28999089631971 0.0 0.0 0.0 34.40246978574605" Properties=species:S:1:pos:R:3:initial_magmoms:R:1 pbc="T T T"
Si      -1.46883672      -1.38005622       1.13380283       0.00000000
Si       0.45649467      -1.13290434      -1.98791343       0.00000000
Si      -0.73394595       2.21998491      -0.29059782       0.00000000
Si       1.93240125      -0.37970361       1.30103333       0.00000000
Si      -1.02770352      -3.41241291       0.02556105       0.00000000
Si      -0.85144572      -0.89288748       3.42924010       0.00000000
Si       3.50650395       1.09792971       0.45431927       0.00000000
Si       0.89731836      -3.38185287      -1.32091797       0.00000000
Si      -1.73587869      -1.35267273      -3.04929902       0.00000000
Si       0.05841594       2.92304502      -2.38674148       0.00000000
