10
Lattice="16.28999089631971 0.0 0.0 0.0 16.28999089631971 0.0 0.0 0.0 34.40246978574605" Properties=species:S:1:pos:R:3:initial_magmoms:R:1 pbc="T T T"
Si      -1.15342974       1.50081399      -1.33984278       0.00000000
Si       1.33455825       1.36208835       1.35173916       0.00000000
Si      -1.38302589      -1.35029439       1.35222079       0.00000000
Si       1.41397200      -1.38971619      -1.35459112       0.00000000
Si      -2.48316615       0.08371431      -2.61927994       0.00000000
Si       2.69289990       0.01133784       2.70991502       0.00000000
Si      -0.02226843      -2.70298341       2.71008703       0.00000000
Si      -2.72124629      -2.69909010      -0.01669897       0.00000000
Si      -2.71190561       2.71111212       0.00860406       0.00000000
Si       2.69586468       2.72725551      -0.02879144       0.00000000
