10
Lattice="16.28999089631971 0.0 0.0 0.0 16.28999089631971 0.0 0.0 0.0 34.40246978574605" Properties=species:S:1:pos:R:3:initial_magmoms:R:1 pbc="T T T"
Si       0.47583090      -0.18792144      -2.30926707       0.00000000
Si       0.55961037       1.90407294       1.34936883       0.00000000
Si      -2.30801607      -0.70110531      -0.18106030       0.00000000
Si       1.95998022      -1.49056758       0.42026081       0.00000000
Si       0.60869214      -3.44145798      -0.28443978       0.00000000
Si       1.55771496      -2.30584950      -2.15345820       0.00000000
Si       1.00970307       0.53936190       3.36869172       0.00000000
Si       2.88605043      -0.49352184       2.37607671       0.00000000
Si       2.14964469       3.22704900      -0.21443071       0.00000000
Si      -1.45657035       0.19178217      -3.61030040       0.00000000
