10
Lattice="16.28999089631971 0.0 0.0 0.0 16.28999089631971 0.0 0.0 0.0 34.40246978574605" Properties=species:S:1:pos:R:3:initial_magmoms:R:1 pbc="T T T"
Si      -1.30545993       1.37810142      -1.29594176       0.00000000
Si       1.32581883       1.37161800       1.34385755       0.00000000
Si      -1.38287001      -1.34477208       1.34093334       0.00000000
Si       1.55847587      -1.21029813      -1.34844684       0.00000000
Si      -2.60962104       0.02616174      -2.64974782       0.00000000
Si       0.22873946      -2.62739781      -2.62788401       0.00000000
Si       0.07150528       2.53355112      -2.78968549       0.00000000
Si       2.68774754       0.01438407       2.70048530       0.00000000
Si      -0.02602853      -2.70174537       2.70165498       0.00000000
Si       2.71190561      -2.71111212      -0.00860406       0.00000000
