10
Lattice="16.28999089631971 0.0 0.0 0.0 16.28999089631971 0.0 0.0 0.0 34.40246978574605" Properties=species:S:1:pos:R:3:initial_magmoms:R:1 pbc="T T T"
Si      -0.79236189      -0.70306011       2.09614366       0.00000000
Si      -0.86157810      -0.57883257      -2.10856295       0.00000000
Si      -0.69243903       2.23549299       0.36638651       0.00000000
Si       2.36657862       0.16216695      -0.41692376       0.00000000
Si       0.42961617       2.96676805      -1.51185178       0.00000000
Si      -0.15462468       1.42346907      -3.23569170       0.00000000
Si       2.50375671       2.49298902      -0.37853059       0.00000000
Si       0.48213513       0.73477674       3.46123442       0.00000000
Si      -3.08775321       0.11455128       2.03889791       0.00000000
Si       0.27199413       2.86320926       2.40566285       0.00000000
