10
Lattice="16.28999089631971 0.0 0.0 0.0 16.28999089631971 0.0 0.0 0.0 34.40246978574605" Properties=species:S:1:pos:R:3:initial_magmoms:R:1 pbc="T T T"
Si      -1.35775521       1.35565380       1.35607731       0.00000000
Si       1.35918881       1.35620766      -1.35858869       0.00000000
Si      -1.35775521      -1.35847544      -1.35858869       0.00000000
Si       1.36255003      -1.36164173       1.36251058       0.00000000
Si      -2.70239697      -0.02147837       2.72230336       0.00000000
Si      -2.71311579       2.71349046      -0.00144490       0.00000000
Si      -2.71332756      -0.00175606      -2.71528525       0.00000000
Si       0.00140094       2.71327869      -2.71545726       0.00000000
Si       2.71613988       2.71402803      -0.00086006       0.00000000
Si      -2.71388142      -2.71807514      -0.00292421       0.00000000
