10
Lattice="16.28999089631971 0.0 0.0 0.0 16.28999089631971 0.0 0.0 0.0 34.40246978574605" Properties=species:S:1:pos:R:3:initial_magmoms:R:1 pbc="T T T"
Si       1.19723355      -1.82382840      -0.85239047       0.00000000
Si      -2.20564971       0.42065667      -0.70070990       0.00000000
Si      -0.27971559       0.27316701       2.33173190       0.00000000
Si       1.64555064       1.62704520      -0.48514390       0.00000000
Si       1.65033990      -1.06613163      -3.09677445       0.00000000
Si      -2.51506197      -0.85201587      -2.60942879       0.00000000
Si      -2.49557913       0.98903106       2.60650458       0.00000000
Si       1.29114540       1.92744909       3.01960967       0.00000000
Si       2.93234402      -2.36379466       0.64962220       0.00000000
Si       1.54619793       3.34665018       1.10806977       0.00000000
