10
Lattice="16.28999089631971 0.0 0.0 0.0 16.28999089631971 0.0 0.0 0.0 34.40246978574605" Properties=species:S:1:pos:R:3:initial_magmoms:R:1 pbc="T T T"
Si      -1.33602435      -1.36448298       1.37757543       0.00000000
Si       1.37741724       1.35501849       1.37664656       0.00000000
Si       1.47214359      -1.29756366      -1.36824203       0.00000000
Si      -1.43218422       1.33182153      -1.42786155       0.00000000
Si       0.15066621       2.72595231      -2.61403460       0.00000000
Si      -2.68674228      -2.71153566      -0.00922675       0.00000000
Si      -2.69798238      -0.00099369       2.73647374       0.00000000
Si      -2.70446580       2.73210993       0.00166508       0.00000000
Si       0.01982493       2.71588509       2.73695538       0.00000000
Si       0.01857060      -2.71676475       2.73723060       0.00000000
