10
Lattice="16.28999089631971 0.0 0.0 0.0 16.28999089631971 0.0 0.0 0.0 34.40246978574605" Properties=species:S:1:pos:R:3:initial_magmoms:R:1 pbc="T T T"
Si       1.38287001       1.34477208      -1.34093334       0.00000000
Si       1.35684148      -1.35697329       1.36072165       0.00000000
Si      -1.35759231       1.36086660       1.36030882       0.00000000
Si      -1.37741724      -1.35501849      -1.37664656       0.00000000
Si       0.07741008       2.72287350      -2.63687510       0.00000000
Si       0.09472635      -2.65258215      -2.74488859       0.00000000
Si       2.70868884       2.71639008       0.00292421       0.00000000
Si       2.71174973      -2.71663443       0.00268339       0.00000000
Si       2.71260658       0.00084708       2.71759022       0.00000000
Si      -0.00185706      -2.71479366       2.71789984       0.00000000
