10
Lattice="16.28999089631971 0.0 0.0 0.0 16.28999089631971 0.0 0.0 0.0 34.40246978574605" Properties=species:S:1:pos:R:3:initial_magmoms:R:1 pbc="T T T"
Si       1.35536058      -1.35783666       1.35752222       0.00000000
Si       1.35677781       1.35764118      -1.35704058       0.00000000
Si      -1.35770634      -1.35786924      -1.35724700       0.00000000
Si      -1.36008468       1.36050822       1.35934555       0.00000000
Si       2.69939961       0.02881701       2.70510211       0.00000000
Si       2.71311579      -2.71349046       0.00144490       0.00000000
Si       2.71451673      -0.00021177      -2.71401236       0.00000000
Si      -0.00021177      -2.71524652      -2.71384035       0.00000000
Si      -2.71313208       2.71637379       0.00037843       0.00000000
Si      -0.00071676       2.71513575      -2.71463160       0.00000000
