10
Lattice="16.28999089631971 0.0 0.0 0.0 16.28999089631971 0.0 0.0 0.0 34.40246978574605" Properties=species:S:1:pos:R:3:initial_magmoms:R:1 pbc="T T T"
Si       1.58043855      -0.33524820      -1.76852875       0.00000000
Si      -0.14532309      -2.26114974       0.98349836       0.00000000
Si      -2.46185883       0.19802124      -0.16014359       0.00000000
Si       0.68240439       2.31858828       0.56705623       0.00000000
Si      -0.77206455       3.12064272      -1.15891665       0.00000000
Si      -0.18749790       2.23260966       2.75694666       0.00000000
Si       2.34088507      -2.56785786      -1.45866553       0.00000000
Si      -0.17143596      -0.14343345      -3.78761083       0.00000000
Si       0.41733351      -3.71104119      -0.78829863       0.00000000
Si      -2.96658819       2.45845422      -0.66940363       0.00000000
