10
Lattice="16.28999089631971 0.0 0.0 0.0 16.28999089631971 0.0 0.0 0.0 34.40246978574605" Properties=species:S:1:pos:R:3:initial_magmoms:R:1 pbc="T T T"
Si      -0.90455112       2.07949995       0.70119153       0.00000000
Si       2.22523029       0.78705135      -0.27153885       0.00000000
Si       0.39332205      -1.61671734       1.77386114       0.00000000
Si      -1.50035787      -0.43357464      -1.93032366       0.00000000
Si       2.78788689      -0.66284010      -2.04333583       0.00000000
Si      -0.09130545       3.24622233      -1.41518079       0.00000000
Si       0.21392028       2.30063670       2.91096661       0.00000000
Si      -1.51055541      -1.48247145       3.18401916       0.00000000
Si      -3.15265257       1.65335355       1.45212906       0.00000000
Si       3.42996068       0.35759808       1.76089140       0.00000000
