10
Lattice="16.28999089631971 0.0 0.0 0.0 16.28999089631971 0.0 0.0 0.0 34.40246978574605" Properties=species:S:1:pos:R:3:initial_magmoms:R:1 pbc="T T T"
Si      -1.35679410      -1.35474156       1.35821027       0.00000000
Si      -1.35755973       1.35809730      -1.35683417       0.00000000
Si       1.35826020      -1.35728280      -1.35717819       0.00000000
Si       1.35925389       1.35910728       1.36020561       0.00000000
Si      -2.70891297      -0.00762372       2.71528525       0.00000000
Si       0.00208512      -2.71202436      -2.71435638       0.00000000
Si      -2.71451673       0.00042354      -2.71377154       0.00000000
Si      -2.71498914      -2.71446786       0.00065365       0.00000000
Si      -0.00014661       2.71505430      -2.71442519       0.00000000
Si       2.71593736      -2.71458189      -0.00037843       0.00000000
