10
Lattice="16.28999089631971 0.0 0.0 0.0 16.28999089631971 0.0 0.0 0.0 34.40246978574605" Properties=species:S:1:pos:R:3:initial_magmoms:R:1 pbc="T T T"
Si       0.93450843      -1.71831807      -1.36330183       0.00000000
Si      -0.77957424      -0.78250644       2.14134853       0.00000000
Si      -1.77761367       1.00186758      -1.35181140       0.00000000
Si       1.75528008       1.85122818       0.06560555       0.00000000
Si       2.29678834      -0.36580824      -2.73826611       0.00000000
Si      -0.43644168       2.36498220      -2.73737165       0.00000000
Si       2.30653728      -3.04893414       0.06629360       0.00000000
Si      -2.33282574       0.77822217       3.08407993       0.00000000
Si       2.62383749      -0.20289195       2.95221519       0.00000000
Si      -2.04283116      -2.72204271       2.06456217       0.00000000
