10
Lattice="16.28999089631971 0.0 0.0 0.0 16.28999089631971 0.0 0.0 0.0 34.40246978574605" Properties=species:S:1:pos:R:3:initial_magmoms:R:1 pbc="T T T"
Si      -1.51827687       0.58893237      -1.75717593       0.00000000
Si       1.88513486       1.16854686      -0.94630927       0.00000000
Si       0.39425058      -2.38197267      -0.07265806       0.00000000
Si      -0.20637801       0.88210350       2.55603613       0.00000000
Si      -2.78153379      -1.35060390      -1.83396229       0.00000000
Si       3.45270527       1.27379655       0.83711577       0.00000000
Si      -3.07152837       2.14966098      -0.81444452       0.00000000
Si       2.14612509      -2.57378742       1.94642402       0.00000000
Si      -2.40090165       0.21991500       3.04554914       0.00000000
Si       2.92559019      -0.20538432      -2.59769754       0.00000000
