10
Lattice="16.28999089631971 0.0 0.0 0.0 16.28999089631971 0.0 0.0 0.0 34.40246978574605" Properties=species:S:1:pos:R:3:initial_magmoms:R:1 pbc="T T T"
Si      -0.86990229      -0.08597862       2.18989044       0.00000000
Si      -1.45446894       0.80205444      -1.72597287       0.00000000
Si      -0.68240439      -2.31858828      -0.56705623       0.00000000
Si       2.05590293       1.38691431       0.30095297       0.00000000
Si       0.89803416      -2.65383648      -2.33558498       0.00000000
Si       3.56087087      -0.20396709       1.34788952       0.00000000
Si       2.76714062      -1.04954841      -2.45575287       0.00000000
Si       0.65168049      -1.39676976       3.52591110       0.00000000
Si      -3.64899258       0.13986594      -1.23645986       0.00000000
Si      -3.14426322      -2.12056704      -0.72719981       0.00000000
