10
Lattice="16.28999089631971 0.0 0.0 0.0 16.28999089631971 0.0 0.0 0.0 34.40246978574605" Properties=species:S:1:pos:R:3:initial_magmoms:R:1 pbc="T T T"
Si       0.37183554       2.19686940      -0.86136952       0.00000000
Si      -2.13190488      -0.71734644      -0.83938633       0.00000000
Si       1.74992067      -1.65727944      -0.21962549       0.00000000
Si      -1.72963962       0.09793548       1.73433268       0.00000000
Si      -3.21378894       1.40058162      -0.99519520       0.00000000
Si      -3.08092770      -1.85295492       1.02963209       0.00000000
Si      -1.63968624       2.87821494      -1.84190926       0.00000000
Si       1.49486814      -3.07648053       1.69191441       0.00000000
Si      -0.80356941       1.09498122       3.69014858       0.00000000
Si       3.87861057      -0.69152679      -0.55769875       0.00000000
