10
Lattice="16.28999089631971 0.0 0.0 0.0 16.28999089631971 0.0 0.0 0.0 34.40246978574605" Properties=species:S:1:pos:R:3:initial_magmoms:R:1 pbc="T T T"
Si      -1.68523308      -0.37186812       1.58815650       0.00000000
Si       1.39872034       1.82685834       0.46838989       0.00000000
Si       1.60075055      -1.73837106       0.05525040       0.00000000
Si      -1.21588560       0.33783831      -2.04708571       0.00000000
Si      -0.13339881       3.15669249       1.63074678       0.00000000
Si      -1.38614868       1.55323521       2.92114974       0.00000000
Si       0.84678582      -2.97219195      -1.83368707       0.00000000
Si      -0.67479696      -1.66140081      -3.16970773       0.00000000
Si       3.68001593      -0.54770238       0.39232598       0.00000000
Si      -3.69675486       0.30947742       0.60761676       0.00000000
