10
Lattice="16.28999089631971 0.0 0.0 0.0 16.28999089631971 0.0 0.0 0.0 34.40246978574605" Properties=species:S:1:pos:R:3:initial_magmoms:R:1 pbc="T T T"
Si      -1.68909381       1.17431419      -1.17336569       0.00000000
Si       1.82895228       1.42528282      -0.52219538       0.00000000
Si       0.30338496      -2.08813365      -1.10143009       0.00000000
Si      -0.33612786       0.31078062       2.36049238       0.00000000
Si       0.73516770       3.37092947       0.28567827       0.00000000
Si      -0.89358795      -1.64024010      -3.10829928       0.00000000
Si      -1.11969315       0.73987455      -3.38293435       0.00000000
Si       0.28206135       2.61323270       2.53006225       0.00000000
Si      -3.70291248       0.34731909      -0.35135262       0.00000000
Si       3.71072258       0.38165841       0.49481100       0.00000000
