10
Lattice="16.28999089631971 0.0 0.0 0.0 16.28999089631971 0.0 0.0 0.0 34.40246978574605" Properties=species:S:1:pos:R:3:initial_magmoms:R:1 pbc="T T T"
Si       0.52030260      -1.08947520      -2.03552647       0.00000000
Si       1.19697291      -0.44789355       2.00686920       0.00000000
Si      -2.23427124      -0.70599231       0.47451353       0.00000000
Si      -0.22610520       2.38011465      -0.27463507       0.00000000
Si      -0.79550586       2.81455429       1.93493359       0.00000000
Si       0.89358795       1.64024010       3.10829928       0.00000000
Si       0.57239802      -3.41339031      -1.71664980       0.00000000
Si      -3.70138122      -0.11978037      -1.25452116       0.00000000
Si       3.45727298      -0.85683771       1.62723773       0.00000000
Si      -2.03074398       2.94972382      -1.69549227       0.00000000
