10
Lattice="16.28999089631971 0.0 0.0 0.0 16.28999089631971 0.0 0.0 0.0 34.40246978574605" Properties=species:S:1:pos:R:3:initial_magmoms:R:1 pbc="T T T"
Si      -0.29908440      -1.92510333      -1.33299324       0.00000000
Si       1.55859462      -0.20758347       1.79412420       0.00000000
Si      -2.21089509       0.69357933       0.62801744       0.00000000
Si       1.25274987       1.60345728      -1.29040296       0.00000000
Si      -2.98263384       0.86162697      -1.59741077       0.00000000
Si      -2.31060618      -1.24375779      -2.31353298       0.00000000
Si       0.12455334      -1.18910484       3.35850859       0.00000000
Si       1.38614868      -1.55323521      -2.92114974       0.00000000
Si      -2.00272518       3.04794045       0.58962426       0.00000000
Si       2.07126928       3.03705873       0.39862164       0.00000000
