10
Lattice="16.28999089631971 0.0 0.0 0.0 16.28999089631971 0.0 0.0 0.0 34.40246978574605" Properties=species:S:1:pos:R:3:initial_magmoms:R:1 pbc="T T T"
Si       0.41998878      -0.67416165      -2.22556582       0.00000000
Si      -2.26193541      -0.63299682       0.37412707       0.00000000
Si       1.64789640      -1.43044119       1.00393343       0.00000000
Si       0.14980284       2.37711825       0.67194942       0.00000000
Si       2.22808104       0.72423711      -2.72223455       0.00000000
Si      -3.17610107       0.95645106       1.81445608       0.00000000
Si       0.51764733      -2.31505335       2.94492186       0.00000000
Si       1.60752978       2.24764533       2.59755993       0.00000000
Si      -3.46666580      -0.20354355      -1.65830318       0.00000000
Si       0.76359375      -3.05009073      -2.23392562       0.00000000
