10
Lattice="16.28999089631971 0.0 0.0 0.0 16.28999089631971 0.0 0.0 0.0 34.40246978574605" Properties=species:S:1:pos:R:3:initial_magmoms:R:1 pbc="T T T"
Si      -2.13706066       0.60230646       0.77921638       0.00000000
Si       0.77212971       1.79510913      -1.39880520       0.00000000
Si       1.45772694      -0.12947292       1.92561052       0.00000000
Si      -0.14980284      -2.37711825      -0.67194942       0.00000000
Si      -1.38309593       1.83612735       2.66815384       0.00000000
Si       1.47730752       0.65445075      -3.33845194       0.00000000
Si       3.57708852      -0.50635836       1.00324538       0.00000000
Si      -3.32590391      -1.42066719       1.14250666       0.00000000
Si      -2.41173825      -3.01011507      -0.29782235       0.00000000
Si       0.45527292      -1.33169121       3.69616902       0.00000000
