10
Lattice="16.28999089631971 0.0 0.0 0.0 16.28999089631971 0.0 0.0 0.0 34.40246978574605" Properties=species:S:1:pos:R:3:initial_magmoms:R:1 pbc="T T T"
Si      -1.74193205      -0.52862679      -1.37290013       0.00000000
Si       0.76411503      -1.98381249       1.02127229       0.00000000
Si      -1.97570007       0.74846034       1.34686402       0.00000000
Si       1.89416862       0.96542685      -1.44937686       0.00000000
Si       1.92143808      -0.72497016       2.61155284       0.00000000
Si      -0.64596366       2.16556002       2.62630119       0.00000000
Si      -0.61337714      -1.42939863      -3.16275842       0.00000000
Si       2.46997125      -2.52503145      -0.65316566       0.00000000
Si       0.73780668       3.48920397       1.03892077       0.00000000
Si       3.67248276      -0.49712193      -0.80463982       0.00000000
