10
Lattice="16.28999089631971 0.0 0.0 0.0 16.28999089631971 0.0 0.0 0.0 34.40246978574605" Properties=species:S:1:pos:R:3:initial_magmoms:R:1 pbc="T T T"
Si      -1.35492890      -1.33965702       1.37186805       0.00000000
Si      -1.35515696       1.35729909      -1.35931115       0.00000000
Si       1.36076886      -1.35850455      -1.35755662       0.00000000
Si       1.34428338       1.37223702       1.36402429       0.00000000
Si       2.68477119      -0.00462636       2.68834810       0.00000000
Si      -2.70275017       2.70550836      -0.00147931       0.00000000
Si      -2.71096930      -0.00035838      -2.71501003       0.00000000
Si       0.00286704       2.71336014      -2.71473481       0.00000000
Si      -2.71348136      -2.71606428      -0.00020641       0.00000000
Si       0.00302994      -2.71555929      -2.71445959       0.00000000
