10
Lattice="16.28999089631971 0.0 0.0 0.0 16.28999089631971 0.0 0.0 0.0 34.40246978574605" Properties=species:S:1:pos:R:3:initial_magmoms:R:1 pbc="T T T"
Si       1.59736482      -0.70765389      -1.58605795       0.00000000
Si       1.49890806      -0.29507706       1.86399566       0.00000000
Si      -1.86910645      -1.60428807       0.12016789       0.00000000
Si      -0.56252628       2.24329590      -0.98914036       0.00000000
Si       0.62358120       3.30708177       0.74292175       0.00000000
Si       1.95444162      -2.80083744      -0.59488784       0.00000000
Si       3.48690708       0.71825868       1.10349424       0.00000000
Si      -0.71123769       2.43646272       2.75670585       0.00000000
Si       0.52502670      -0.84476682      -3.61525436       0.00000000
Si       2.09987874      -2.60240895       1.80826363       0.00000000
