10
Lattice="16.28999089631971 0.0 0.0 0.0 16.28999089631971 0.0 0.0 0.0 34.40246978574605" Properties=species:S:1:pos:R:3:initial_magmoms:R:1 pbc="T T T"
Si       1.98799902       1.01333574      -0.76050142       0.00000000
Si      -0.70517781       1.14065838       1.93964673       0.00000000
Si       0.60097068      -2.30733189      -0.05573203       0.00000000
Si      -1.49890806       0.29507706      -1.86399566       0.00000000
Si       0.09845676      -0.41257683      -3.45005361       0.00000000
Si       0.45553356      -2.50576038      -2.45888350       0.00000000
Si      -2.21014575       2.73153978       0.89271019       0.00000000
Si       1.45867176       3.29971869      -0.78272543       0.00000000
Si      -1.47730752      -0.65445075       3.33845194       0.00000000
Si       3.71081313       0.51000732       0.80811447       0.00000000
