10
Lattice="16.28999089631971 0.0 0.0 0.0 16.28999089631971 0.0 0.0 0.0 34.40246978574605" Properties=species:S:1:pos:R:3:initial_magmoms:R:1 pbc="T T T"
Si       1.06627824       0.53227575      -2.03834747       0.00000000
Si       1.97081307      -0.55667817       1.18396166       0.00000000
Si      -1.77090938      -1.62756648       0.21745813       0.00000000
Si      -0.89992786       1.86352713       1.33010343       0.00000000
Si       0.58704273      -1.88032212       2.77134208       0.00000000
Si       0.92862774       2.94993981      -1.68733888       0.00000000
Si      -0.74269368      -3.29742180       1.49190491       0.00000000
Si      -2.27689307       0.70807743       2.82384716       0.00000000
Si      -3.58105418      -0.64386225       1.47004110       0.00000000
Si       3.79071558      -0.90367146      -0.67900193       0.00000000
