10
Lattice="16.28999089631971 0.0 0.0 0.0 16.28999089631971 0.0 0.0 0.0 34.40246978574605" Properties=species:S:1:pos:R:3:initial_magmoms:R:1 pbc="T T T"
Si      -1.35604217      -1.35509994      -1.35728140       0.00000000
Si       1.35730886      -1.35817875       1.35686857       0.00000000
Si      -1.35723597       1.35809730       1.35717819       0.00000000
Si       1.35862835       1.35700587      -1.35776303       0.00000000
Si      -0.00071513      -2.71423980       2.71229223       0.00000000
Si      -0.00409856      -2.71381626      -2.71476921       0.00000000
Si      -2.71420463      -2.71459818      -0.00020641       0.00000000
Si       0.00111424       2.71469592       2.71428758       0.00000000
Si       2.71509665      -2.71467963       0.00017201       0.00000000
Si      -2.71739747       0.00068418      -2.71267066       0.00000000
