10
Lattice="16.28999089631971 0.0 0.0 0.0 16.28999089631971 0.0 0.0 0.0 34.40246978574605" Properties=species:S:1:pos:R:3:initial_magmoms:R:1 pbc="T T T"
Si       1.07435808       0.99051345      -1.94835056       0.00000000
Si       1.94670387      -1.21165020       0.83298747       0.00000000
Si      -1.62745164      -1.80859725       0.29273078       0.00000000
Si      -0.46326968       2.06848206       1.31066603       0.00000000
Si       2.58196500       2.28432294      -0.48627918       0.00000000
Si      -3.13636976      -0.64329210       1.87545169       0.00000000
Si       1.66110759      -0.92129724       3.22654064       0.00000000
Si      -1.89158570       1.25421990       2.98672089       0.00000000
Si      -2.23354538      -2.23922340      -2.10316176       0.00000000
Si       1.60425549       3.22630685       1.64082671       0.00000000
