10
Lattice="10.86 0.0 0.0 0.0 10.86 0.0 0.0 0.0 10.86" Properties=species:S:1:pos:R:3:initial_magmoms:R:1 pbc="T T T"
Si       1.50880152       1.27810254       1.19179812       0.00000000
Si      -1.20619848       1.27810254      -1.52320188       0.00000000
Si      -0.95131428      -1.72382952       1.48078272       0.00000000
Si       1.50880152      -1.43689746      -1.52320188       0.00000000
Si      -2.51640318      -0.17656188       2.52524322       0.00000000
Si       0.15130152       2.63560254       2.54929812       0.00000000
Si      -2.56369848       2.63560254      -0.16570188       0.00000000
Si      -2.39401098      -2.91221760      -0.15599304       0.00000000
Si      -2.56369848      -0.07939746      -2.88070188       0.00000000
Si       2.69334516      -2.77694544      -0.13657536       0.00000000
