10
Lattice="10.86 0.0 0.0 0.0 10.86 0.0 0.0 0.0 10.86" Properties=species:S:1:pos:R:3:initial_magmoms:R:1 pbc="T T T"
Si       1.06092426       1.45455582      -1.34784546       0.00000000
Si       1.11691842      -1.49811528       1.30700100       0.00000000
Si      -1.49768088      -1.11051102      -1.35221118       0.00000000
Si      -2.58373518       2.50767174       0.26951262       0.00000000
Si       2.59138062      -2.63539620      -0.01947198       0.00000000
Si       2.59138062       0.07960380       2.69552802       0.00000000
Si       2.59138062       0.07960380      -2.73447198       0.00000000
Si      -0.12361938      -2.63539620       2.69552802       0.00000000
Si      -0.12361938      -2.63539620      -2.73447198       0.00000000
Si       2.59138062       2.79460380      -0.01947198       0.00000000
