10
Lattice="10.86 0.0 0.0 0.0 10.86 0.0 0.0 0.0 10.86" Properties=species:S:1:pos:R:3:initial_magmoms:R:1 pbc="T T T"
Si       1.36664412       1.32431184       1.31487450       0.00000000
Si      -1.34835588      -1.39068816       1.31487450       0.00000000
Si       1.36664412      -1.39068816      -1.40012550       0.00000000
Si      -1.38208704       1.36384224      -1.54755000       0.00000000
Si      -2.40317682       2.60062248       0.03141798       0.00000000
Si       0.00914412       2.68181184       2.67237450       0.00000000
Si      -2.70585588      -0.03318816       2.67237450       0.00000000
Si       2.72414412      -0.03318816       2.67237450       0.00000000
Si       2.65750716       0.08874792      -2.75988438       0.00000000
Si       0.00914412      -2.74818816       2.67237450       0.00000000
