10
Lattice="10.86 0.0 0.0 0.0 10.86 0.0 0.0 0.0 10.86" Properties=species:S:1:pos:R:3:initial_magmoms:R:1 pbc="T T T"
Si       1.13402292       1.48077186       1.17005640       0.00000000
Si       1.13402292      -1.23422814      -1.54494360       0.00000000
Si      -1.58097708      -1.23422814       1.17005640       0.00000000
Si       2.49152292       0.12327186       2.52755640       0.00000000
Si       2.49152292      -2.59172814      -0.18744360       0.00000000
Si      -0.22347708      -2.59172814       2.52755640       0.00000000
Si       2.49152292       2.83827186      -0.18744360       0.00000000
Si      -0.22347708       2.83827186       2.52755640       0.00000000
Si      -0.29011404      -2.46979206      -2.90470248       0.00000000
Si       2.49152292       0.12327186      -2.90244360       0.00000000
