10
Lattice="10.86 0.0 0.0 0.0 10.86 0.0 0.0 0.0 10.86" Properties=species:S:1:pos:R:3:initial_magmoms:R:1 pbc="T T T"
Si       1.28558508       0.52214880       1.68745938       0.00000000
Si      -1.30904268      -1.39413078       1.12538922       0.00000000
Si      -1.30904268       1.32086922      -1.58961078       0.00000000
Si       1.40595732      -1.39413078      -1.58961078       0.00000000
Si       2.24712948       2.51416602       0.12253338       0.00000000
Si      -0.08955156       2.54860308       2.33734350       0.00000000
Si      -2.66654268      -0.03663078       2.48288922       0.00000000
Si      -0.02768214      -2.89899012       2.27583246       0.00000000
Si      -2.66654268       2.67836922      -0.23211078       0.00000000
Si      -2.66654268      -2.75163078      -0.23211078       0.00000000
