10
Lattice="10.86 0.0 0.0 0.0 10.86 0.0 0.0 0.0 10.86" Properties=species:S:1:pos:R:3:initial_magmoms:R:1 pbc="T T T"
Si      -1.28558508      -0.52214880      -1.68745938       0.00000000
Si      -1.37513664       2.02645428       0.64988412       0.00000000
Si       0.96154440       1.99201722      -1.56492600       0.00000000
Si       0.24084222      -2.05139970       2.03079828       0.00000000
Si      -2.59462776      -1.91627958      -0.56207016       0.00000000
Si      -2.59462776       0.79872042       2.15292984       0.00000000
Si      -1.20245178      -0.67575264       3.44339106       0.00000000
Si      -1.31326722      -3.42113892       0.58837308       0.00000000
Si       0.12037224      -1.91627958      -3.27707016       0.00000000
Si      -3.95212776      -0.55877958       0.79542984       0.00000000
