10
Lattice="10.86 0.0 0.0 0.0 10.86 0.0 0.0 0.0 10.86" Properties=species:S:1:pos:R:3:initial_magmoms:R:1 pbc="T T T"
Si       1.10381040       1.17819054       1.49892978       0.00000000
Si      -1.61118960       1.17819054      -1.21607022       0.00000000
Si      -1.61118960      -1.53680946       1.49892978       0.00000000
Si       2.31294108       0.11430150      -2.41046388       0.00000000
Si       2.46131040       2.53569054       0.14142978       0.00000000
Si      -0.25368960       2.53569054      -2.57357022       0.00000000
Si       2.46131040      -0.17930946       2.85642978       0.00000000
Si      -0.25368960       2.53569054       2.85642978       0.00000000
Si      -2.96868960       2.53569054       0.14142978       0.00000000
Si      -0.25368960      -2.89430946       2.85642978       0.00000000
