10
Lattice="10.86 0.0 0.0 0.0 10.86 0.0 0.0 0.0 10.86" Properties=species:S:1:pos:R:3:initial_magmoms:R:1 pbc="T T T"
Si       1.09737042      -1.13866014      -1.53831900       0.00000000
Si       1.09737042       1.57633986       1.17668100       0.00000000
Si      -1.61762958      -1.13866014       1.17668100       0.00000000
Si       2.45487042      -2.49616014      -0.18081900       0.00000000
Si       2.45487042       0.21883986       2.53418100       0.00000000
Si      -0.26012958      -2.49616014       2.53418100       0.00000000
Si       2.45487042       0.21883986      -2.89581900       0.00000000
Si       2.45487042       2.93383986      -0.18081900       0.00000000
Si      -2.94350526      -2.53300812       0.03110304       0.00000000
Si      -0.26012958       2.93383986       2.53418100       0.00000000
