10
Lattice="10.86 0.0 0.0 0.0 10.86 0.0 0.0 0.0 10.86" Properties=species:S:1:pos:R:3:initial_magmoms:R:1 pbc="T T T"
Si      -1.12089318       1.32242220      -1.29819354       0.00000000
Si      -1.12089318      -1.39257780       1.41680646       0.00000000
Si       1.59410682       1.32242220       1.41680646       0.00000000
Si       1.54057788      -0.68423430      -1.95730866       0.00000000
Si       0.23243658      -2.69957880      -2.39625900       0.00000000
Si      -2.47839318      -0.03507780      -2.65569354       0.00000000
Si      -2.47839318       2.67992220       0.05930646       0.00000000
Si      -2.47839318      -2.75007780       0.05930646       0.00000000
Si      -2.47839318      -0.03507780       2.77430646       0.00000000
Si       0.51000732       2.53634214      -2.76825744       0.00000000
