10
Lattice="10.86 0.0 0.0 0.0 10.86 0.0 0.0 0.0 10.86" Properties=species:S:1:pos:R:3:initial_magmoms:R:1 pbc="T T T"
Si      -1.30814130      -2.01534450      -0.43895034       0.00000000
Si      -1.54057788       0.68423430       1.95730866       0.00000000
Si       0.38497614       1.88059362      -1.75853808       0.00000000
Si      -2.66147106       2.00665650       0.65911512       0.00000000
Si      -2.66147106      -0.70834350      -2.05588488       0.00000000
Si      -1.03057056       3.22057644      -0.81094878       0.00000000
Si       1.53812352      -2.37591822       2.15607924       0.00000000
Si      -1.43318334       0.77758686      -3.44237022       0.00000000
Si       0.05352894       2.00665650       3.37411512       0.00000000
Si       0.05352894      -3.42334350      -2.05588488       0.00000000
