10
Lattice="10.86 0.0 0.0 0.0 10.86 0.0 0.0 0.0 10.86" Properties=species:S:1:pos:R:3:initial_magmoms:R:1 pbc="T T T"
Si       1.22011014       1.20431970       1.42483200       0.00000000
Si      -1.49488986       1.20431970      -1.29016800       0.00000000
Si      -1.49488986      -1.51068030       1.42483200       0.00000000
Si       2.60587872      -0.00546258      -2.48590830       0.00000000
Si       2.57761014       2.56181970       0.06733200       0.00000000
Si      -0.13738986       2.56181970      -2.64766800       0.00000000
Si      -0.13738986       2.56181970       2.78233200       0.00000000
Si      -2.57898936      -0.29676036      -2.76023190       0.00000000
Si       2.57761014      -0.15318030       2.78233200       0.00000000
Si      -2.85238986       2.56181970       0.06733200       0.00000000
