10
Lattice="10.86 0.0 0.0 0.0 10.86 0.0 0.0 0.0 10.86" Properties=species:S:1:pos:R:3:initial_magmoms:R:1 pbc="T T T"
Si       1.32923142       1.20978228       1.19574030       0.00000000
Si      -1.38576858       1.20978228      -1.51925970       0.00000000
Si       1.32923142      -1.50521772      -1.51925970       0.00000000
Si      -2.60587872       0.00546258       2.48590830       0.00000000
Si      -0.02826858       2.56728228       2.55324030       0.00000000
Si       2.68673142      -0.14771772       2.55324030       0.00000000
Si       2.68673142       2.56728228      -0.16175970       0.00000000
Si      -2.74326858       2.56728228      -0.16175970       0.00000000
Si      -2.49332568      -0.37864476      -2.83308078       0.00000000
Si      -0.02826858       2.56728228      -2.87675970       0.00000000
