10
Lattice="10.86 0.0 0.0 0.0 10.86 0.0 0.0 0.0 10.86" Properties=species:S:1:pos:R:3:initial_magmoms:R:1 pbc="T T T"
Si      -1.48322622      -1.11737454       1.19047320       0.00000000
Si       1.23177378      -1.11737454      -1.52452680       0.00000000
Si       1.23177378       1.59762546       1.19047320       0.00000000
Si      -2.99818536       1.30392762      -0.97339266       0.00000000
Si      -0.12572622      -2.47487454       2.54797320       0.00000000
Si       2.58927378      -2.47487454      -0.16702680       0.00000000
Si       2.58927378       0.24012546       2.54797320       0.00000000
Si      -0.39481530       2.70440064      -2.47315866       0.00000000
Si      -2.84072622      -2.47487454      -0.16702680       0.00000000
Si      -0.12572622      -2.47487454      -2.88202680       0.00000000
