10
Lattice="10.86 0.0 0.0 0.0 10.86 0.0 0.0 0.0 10.86" Properties=species:S:1:pos:R:3:initial_magmoms:R:1 pbc="T T T"
Si      -1.34416392       1.28519412       1.37661360       0.00000000
Si      -1.34416392      -1.42980588      -1.33838640       0.00000000
Si       1.37083608      -1.42980588       1.37661360       0.00000000
Si      -2.70166392       2.64269412       0.01911360       0.00000000
Si       0.01333608       2.64269412       2.73411360       0.00000000
Si      -2.70166392      -0.07230588      -2.69588640       0.00000000
Si      -2.70166392      -0.07230588       2.73411360       0.00000000
Si       2.72833608      -0.07230588       2.73411360       0.00000000
Si       0.01333608      -2.78730588      -2.69588640       0.00000000
Si      -2.70166392      -2.78730588       0.01911360       0.00000000
