10
Lattice="10.86 0.0 0.0 0.0 10.86 0.0 0.0 0.0 10.86" Properties=species:S:1:pos:R:3:initial_magmoms:R:1 pbc="T T T"
Si      -1.42886106       1.28202300       1.28139312       0.00000000
Si       1.28613894      -1.43297700       1.28139312       0.00000000
Si       1.28613894       1.28202300      -1.43360688       0.00000000
Si      -0.07136106       2.63952300       2.63889312       0.00000000
Si       2.64363894      -0.07547700       2.63889312       0.00000000
Si       2.64363894       2.63952300      -0.07610688       0.00000000
Si      -2.78636106      -0.07547700       2.63889312       0.00000000
Si      -2.78636106       2.63952300      -0.07610688       0.00000000
Si      -0.07136106      -2.79047700       2.63889312       0.00000000
Si      -0.07136106       2.63952300      -2.79110688       0.00000000
