10
Lattice="10.86 0.0 0.0 0.0 10.86 0.0 0.0 0.0 10.86" Properties=species:S:1:pos:R:3:initial_magmoms:R:1 pbc="T T T"
Si       1.30868430      -1.30868430      -1.39966938       0.00000000
Si      -1.35808644       1.35808644      -1.39468464       0.00000000
Si       2.70261960       0.01238040       2.66278512       0.00000000
Si      -0.01238040      -2.70261960       2.66278512       0.00000000
Si      -0.01238040       2.72738040       2.66278512       0.00000000
Si      -2.72738040       0.01238040       2.66278512       0.00000000
Si       2.70261960      -2.70261960      -0.05221488       0.00000000
Si       2.70261960       2.72738040      -0.05221488       0.00000000
Si      -2.72738040      -2.70261960      -0.05221488       0.00000000
Si      -2.72738040       2.72738040      -0.05221488       0.00000000
