10
Lattice="10.86 0.0 0.0 0.0 10.86 0.0 0.0 0.0 10.86" Properties=species:S:1:pos:R:3:initial_magmoms:R:1 pbc="T T T"
Si       0.90076098      -1.53600582      -1.45731426       0.00000000
Si       0.83808792       1.92949620       1.17419406       0.00000000
Si      -1.81423902       1.17899418      -1.45731426       0.00000000
Si      -1.81423902      -1.53600582       1.25768574       0.00000000
Si       2.17347696      -0.01732170       2.37407202       0.00000000
Si       2.26911012      -0.30604566      -2.82316560       0.00000000
Si       2.25826098      -2.89350582      -0.09981426       0.00000000
Si       1.14873822       3.50682432      -0.85081584       0.00000000
Si      -0.48060930       2.63273550      -2.69957880       0.00000000
Si      -0.45673902      -2.89350582       2.61518574       0.00000000
