10
Lattice="10.86 0.0 0.0 0.0 10.86 0.0 0.0 0.0 10.86" Properties=species:S:1:pos:R:3:initial_magmoms:R:1 pbc="T T T"
Si       1.24047264       1.16819934       1.43821152       0.00000000
Si      -1.47452736       1.16819934      -1.27678848       0.00000000
Si       1.24047264      -1.54680066      -1.27678848       0.00000000
Si       2.59797264       2.52569934       0.08071152       0.00000000
Si      -0.11702736       2.52569934      -2.63428848       0.00000000
Si       2.59797264      -0.18930066      -2.63428848       0.00000000
Si       2.59797264      -0.18930066       2.79571152       0.00000000
Si      -2.83202736      -0.18930066      -2.63428848       0.00000000
Si       2.59797264      -2.90430066       0.08071152       0.00000000
Si      -0.11702736      -2.90430066      -2.63428848       0.00000000
