10
Lattice="10.86 0.0 0.0 0.0 10.86 0.0 0.0 0.0 10.86" Properties=species:S:1:pos:R:3:initial_magmoms:R:1 pbc="T T T"
Si      -1.31030244       0.74544126       1.66851954       0.00000000
Si      -0.83808792      -1.92949620      -1.17419406       0.00000000
Si       0.31065030       1.57732812      -2.02500990       0.00000000
Si       1.33538904      -1.94681790       1.19987796       0.00000000
Si      -2.65232694       1.96449798       0.08349168       0.00000000
Si       0.06267306       1.96449798       2.79849168       0.00000000
Si      -2.65232694      -0.75050202      -2.63150832       0.00000000
Si      -1.36765410       3.43960092      -1.26827424       0.00000000
Si       1.53180300       3.31607928       1.40532744       0.00000000
Si      -2.65232694      -0.75050202       2.79849168       0.00000000
