10
Lattice="10.86 0.0 0.0 0.0 10.86 0.0 0.0 0.0 10.86" Properties=species:S:1:pos:R:3:initial_magmoms:R:1 pbc="T T T"
Si      -1.33328220       1.33328220       1.34755224       0.00000000
Si       1.38171780       1.33328220      -1.36744776       0.00000000
Si      -1.33328220      -1.38171780      -1.36744776       0.00000000
Si       1.36216980      -1.36216980       1.37224788       0.00000000
Si      -2.69078220       2.69078220      -0.00994776       0.00000000
Si       0.02421780       2.69078220       2.70505224       0.00000000
Si      -2.69078220      -0.02421780       2.70505224       0.00000000
Si       0.02421780       2.69078220      -2.72494776       0.00000000
Si      -2.69078220      -0.02421780      -2.72494776       0.00000000
Si       2.71466334      -2.71466334       0.06342240       0.00000000
