10
Lattice="10.86 0.0 0.0 0.0 10.86 0.0 0.0 0.0 10.86" Properties=species:S:1:pos:R:3:initial_magmoms:R:1 pbc="T T T"
Si       1.35249354      -1.35249354      -1.30882548       0.00000000
Si      -1.36216980       1.36216980      -1.37224788       0.00000000
Si       0.01954800       2.69545200       2.69030436       0.00000000
Si      -2.69545200      -0.01954800       2.69030436       0.00000000
Si      -2.69545200       2.69545200      -0.02469564       0.00000000
Si       2.73454800      -0.01954800       2.69030436       0.00000000
Si       0.01954800      -2.73454800       2.69030436       0.00000000
Si       2.73454800       2.69545200      -0.02469564       0.00000000
Si      -2.69545200      -2.73454800      -0.02469564       0.00000000
Si       0.01954800       2.69545200      -2.73969564       0.00000000
