10
Lattice="16.28999089631971 0.0 0.0 0.0 16.28999089631971 0.0 0.0 0.0 34.64500226677339" Properties=species:S:1:pos:R:3:initial_magmoms:R:1 pbc="T T T"
Si      -1.39815441       1.26838175       1.53331937       0.00000000
Si       1.17069714       1.74561359      -1.23697074       0.00000000
Si      -1.61080407      -1.21118431      -1.40364794       0.00000000
Si       1.32007644      -1.42545630       1.51350588       0.00000000
Si      -0.80073495       3.20977508      -1.16642772       0.00000000
Si      -2.73342942       2.63444486       0.15051530       0.00000000
Si      -2.69930187      -2.70128666       0.12718880       0.00000000
Si       2.90548440      -2.61897329       0.12682157       0.00000000
Si      -0.04341285       2.63768657       2.90703951       0.00000000
Si       2.66918166      -0.08090591       2.90340179       0.00000000
