10
Lattice="16.28999089631971 0.0 0.0 0.0 16.28999089631971 0.0 0.0 0.0 34.64500226677339" Properties=species:S:1:pos:R:3:initial_magmoms:R:1 pbc="T T T"
Si      -1.33131654      -1.35078327       1.37887186       0.00000000
Si       1.35606105      -1.35298242      -1.35583292       0.00000000
Si      -1.35580041       1.36063577      -1.35683763       0.00000000
Si       1.35172791       1.34660031       1.37838683       0.00000000
Si      -2.55909384       0.09898423       2.80021852       0.00000000
Si      -0.00099369      -2.71342548      -2.71353667       0.00000000
Si       2.71396287       0.00152993      -2.71339809       0.00000000
Si      -2.71534752       2.71408390       0.00422669       0.00000000
Si      -2.71595025       0.00179437      -2.71357132       0.00000000
Si      -0.00100998       2.71634821      -2.71329416       0.00000000
