10
Lattice="16.28999089631971 0.0 0.0 0.0 16.28999089631971 0.0 0.0 0.0 34.64500226677339" Properties=species:S:1:pos:R:3:initial_magmoms:R:1 pbc="T T T"
Si      -0.37869363       2.22241212       0.66144275       0.00000000
Si      -2.17166877      -0.90658737       0.09340298       0.00000000
Si       1.51865154      -1.06859142       1.55130013       0.00000000
Si       0.51504093       0.45667386      -2.31986529       0.00000000
Si      -0.95417046       2.32282368      -1.69337937       0.00000000
Si      -1.42198668      -2.88731195      -1.05203073       0.00000000
Si      -0.23335425      -1.80263022      -2.90276778       0.00000000
Si       1.25305938       0.36028593       3.41620700       0.00000000
Si      -2.59151094      -1.08758556       2.43246161       0.00000000
Si       2.86925544       0.38387385      -2.60596388       0.00000000
