10
Lattice="16.28999089631971 0.0 0.0 0.0 16.28999089631971 0.0 0.0 0.0 34.64500226677339" Properties=species:S:1:pos:R:3:initial_magmoms:R:1 pbc="T T T"
Si       1.52044344       0.94226247      -1.49902080       0.00000000
Si      -1.22960178      -1.40874291      -1.39872346       0.00000000
Si       1.40121693      -1.03462677       1.58345071       0.00000000
Si      -0.95887827       1.99353762       0.87367816       0.00000000
Si      -0.04046436       1.78171875      -3.06490648       0.00000000
Si       0.08397495      -0.47685717       3.51646970       0.00000000
Si       2.28043710       2.80424205      -0.30747457       0.00000000
Si      -0.95174325      -0.34479414      -3.55336664       0.00000000
Si      -0.52795890       1.82944845       3.16873761       0.00000000
Si       0.07444530      -3.34498860      -1.69642813       0.00000000
