10
Lattice="16.28999089631971 0.0 0.0 0.0 16.28999089631971 0.0 0.0 0.0 34.64500226677339" Properties=species:S:1:pos:R:3:initial_magmoms:R:1 pbc="T T T"
Si      -1.35707103      -1.35651717      -1.35697621       0.00000000
Si      -1.35692442       1.35731538       1.35746124       0.00000000
Si       1.35824391       1.35791811      -1.35659511       0.00000000
Si       1.35843939      -1.35856971       1.35770375       0.00000000
Si      -2.71359146       2.71383255       0.00027716       0.00000000
Si       0.00019548       2.71094922      -2.71693189       0.00000000
Si      -2.71345462       0.00125433       2.71561538       0.00000000
Si       0.00291591      -2.71456560       2.71492247       0.00000000
Si      -2.71471873      -2.71511946       0.00010394       0.00000000
Si      -2.71580690      -0.00120546      -2.71419493       0.00000000
