10
Lattice="16.28999089631971 0.0 0.0 0.0 16.28999089631971 0.0 0.0 0.0 34.64500226677339" Properties=species:S:1:pos:R:3:initial_magmoms:R:1 pbc="T T T"
Si      -1.35452979       1.35685926      -1.35711479       0.00000000
Si      -1.35402480      -1.33993395       1.37762464       0.00000000
Si       1.35843939      -1.35751086      -1.35645653       0.00000000
Si       1.35084825       1.34876313       1.37956476       0.00000000
Si       0.14771772      -2.50955595       2.79626899       0.00000000
Si       0.00115659       2.71373481      -2.71474925       0.00000000
Si      -2.71393029      -0.00105885      -2.71471460       0.00000000
Si       2.71743264       2.71171485       0.00568178       0.00000000
Si      -2.71720458       2.71376739       0.00374166       0.00000000
Si       2.71642266      -0.00097740      -2.71457602       0.00000000
