10
Lattice="16.28999089631971 0.0 0.0 0.0 16.28999089631971 0.0 0.0 0.0 34.64500226677339" Properties=species:S:1:pos:R:3:initial_magmoms:R:1 pbc="T T T"
Si       1.02789900      -2.01694635      -0.55283061       0.00000000
Si      -1.58560344      -0.68587416       1.57413120       0.00000000
Si       2.18318580       0.55570077       0.82195314       0.00000000
Si      -1.08822087       0.09335799      -2.47382777       0.00000000
Si      -0.02469564      -1.52533044       3.14001689       0.00000000
Si       1.85862384      -1.40035356      -2.66461790       0.00000000
Si      -0.70732809       2.70956457      -2.34463648       0.00000000
Si      -0.75582342      -3.56239494      -0.43379032       0.00000000
Si       3.11966532      -1.89381024       0.80781797       0.00000000
Si      -3.20023566       1.03563675       1.85177641       0.00000000
