10
Lattice="16.28999089631971 0.0 0.0 0.0 16.28999089631971 0.0 0.0 0.0 34.64500226677339" Properties=species:S:1:pos:R:3:initial_magmoms:R:1 pbc="T T T"
Si       1.69303599      -0.91932615      -1.47338348       0.00000000
Si      -1.96012683      -1.41540552      -0.19387354       0.00000000
Si      -0.58363812       1.97262126      -1.31041330       0.00000000
Si       0.45683676       0.22480200       2.50629015       0.00000000
Si      -1.14833097       0.63783495      -3.17182102       0.00000000
Si      -2.39104620      -1.25131635      -2.48893300       0.00000000
Si       0.84826917      -0.44061192      -3.67008572       0.00000000
Si      -1.03004928       2.02342977       3.08378802       0.00000000
Si      -2.64888432       2.79523368      -0.47006365       0.00000000
Si      -3.66630885      -0.48860226       1.24995774       0.00000000
