10
Lattice="16.28999089631971 0.0 0.0 0.0 16.28999089631971 0.0 0.0 0.0 34.64500226677339" Properties=species:S:1:pos:R:3:initial_magmoms:R:1 pbc="T T T"
Si      -1.35606105       1.35298242       1.35583292       0.00000000
Si       1.35790182       1.35451236      -1.35756517       0.00000000
Si      -1.35705474      -1.36044306      -1.35770375       0.00000000
Si       1.35922131      -1.36246302       1.36272728       0.00000000
Si      -2.68737759       0.00219915       2.73470478       0.00000000
Si      -2.71186146       2.71361819      -0.00100471       0.00000000
Si       0.00004887       2.71226449      -2.71474925       0.00000000
Si      -2.71419093      -0.00332316      -2.71488783       0.00000000
Si       2.71720458       2.71190123      -0.00027716       0.00000000
Si      -2.71274112      -2.71731861      -0.00006929       0.00000000
