10
Lattice="16.28999089631971 0.0 0.0 0.0 16.28999089631971 0.0 0.0 0.0 34.64500226677339" Properties=species:S:1:pos:R:3:initial_magmoms:R:1 pbc="T T T"
Si       0.83569329       2.10885453      -0.56852480       0.00000000
Si      -2.32547895       0.02505402      -0.26302500       0.00000000
Si       0.37660851       0.04113225       2.38513651       0.00000000
Si       0.40482279      -1.34403903      -2.01554342       0.00000000
Si       2.66103666       1.41154479      -1.88701039       0.00000000
Si      -1.21482675      -0.49490649      -3.48851116       0.00000000
Si       0.07382628       2.39133942       2.88516811       0.00000000
Si      -3.05585739      -2.16824787       0.16827087       0.00000000
Si       1.71235593       3.11534847       1.38178204       0.00000000
Si      -1.12024701      -1.34767170       3.47357916       0.00000000
