10
Lattice="16.28999089631971 0.0 0.0 0.0 16.28999089631971 0.0 0.0 0.0 34.64500226677339" Properties=species:S:1:pos:R:3:initial_magmoms:R:1 pbc="T T T"
Si      -1.49685552      -1.38880395       1.08844264       0.00000000
Si       2.04305922      -0.23845302       1.15291703       0.00000000
Si      -0.37660851      -0.04113225      -2.38513651       0.00000000
Si      -0.30278223       2.35020717       0.50003160       0.00000000
Si       2.93847165       1.83909213       0.32753403       0.00000000
Si       1.33574742       3.07421622      -1.00335447       0.00000000
Si       0.45908478       2.06772228      -2.95366132       0.00000000
Si      -3.08498391      -0.05098770       2.14549690       0.00000000
Si      -2.70208746      -0.01607823      -2.64816152       0.00000000
Si       2.85014727      -2.48161860       0.85864222       0.00000000
