10
Lattice="16.28999089631971 0.0 0.0 0.0 16.28999089631971 0.0 0.0 0.0 34.64500226677339" Properties=species:S:1:pos:R:3:initial_magmoms:R:1 pbc="T T T"
Si      -1.97004744       0.65008503      -1.09713854       0.00000000
Si      -0.03922632      -2.33487828      -0.32088219       0.00000000
Si       0.41524839       0.56712006       2.30735844       0.00000000
Si       1.50531003       0.92321946      -1.64349054       0.00000000
Si       2.05798086      -2.89846341       0.54638664       0.00000000
Si       2.19103758       2.18909974       2.13870648       0.00000000
Si       0.28183329      -2.58621669      -2.72673643       0.00000000
Si       1.17724572      -0.50867154      -3.55211942       0.00000000
Si      -2.34343053       2.99226842      -0.81724142       0.00000000
Si       3.75266214       0.31638438      -1.13926689       0.00000000
