10
Lattice="16.28999089631971 0.0 0.0 0.0 16.28999089631971 0.0 0.0 0.0 34.64500226677339" Properties=species:S:1:pos:R:3:initial_magmoms:R:1 pbc="T T T"
Si      -0.23446197      -2.04996618      -1.27490215       0.00000000
Si      -1.06795611       1.06341839       1.90135343       0.00000000
Si      -0.42321420       1.07619463      -2.14064660       0.00000000
Si       2.53900827      -0.48949821       0.27553186       0.00000000
Si       2.09276001      -1.65004668      -1.69379511       0.00000000
Si       1.47782880       0.06320520      -3.24433305       0.00000000
Si       0.57816468       3.18844889      -1.68561888       0.00000000
Si      -2.90903562       2.20915925       0.71656298       0.00000000
Si       2.58919776      -2.14321014       2.04204686       0.00000000
Si       0.54284796       2.27460269       3.30500137       0.00000000
