10
Lattice="16.28999089631971 0.0 0.0 0.0 16.28999089631971 0.0 0.0 0.0 34.64500226677339" Properties=species:S:1:pos:R:3:initial_magmoms:R:1 pbc="T T T"
Si      -1.34154666       1.01327058      -1.73374082       0.00000000
Si       2.05112277       1.28273976       0.06326181       0.00000000
Si      -1.58200335       0.70011162       1.70249101       0.00000000
Si       0.31351734      -2.48648021       0.23749162       0.00000000
Si       0.96326028       3.44878848       0.24726152       0.00000000
Si      -3.53522322      -0.41743125       1.06374074       0.00000000
Si      -1.07595450      -0.41560677      -3.59864769       0.00000000
Si      -0.52318593       3.37302369      -1.62530190       0.00000000
Si      -0.41653530       0.62740935       3.71065504       0.00000000
Si      -3.68817003       0.62521020      -1.11210519       0.00000000
