10
Lattice="16.28999089631971 0.0 0.0 0.0 16.28999089631971 0.0 0.0 0.0 34.64500226677339" Properties=species:S:1:pos:R:3:initial_magmoms:R:1 pbc="T T T"
Si      -0.23138316       1.54717533       1.79398851       0.00000000
Si       2.19610377      -0.03748329      -0.98402255       0.00000000
Si      -1.47344679       0.71184042      -1.77441407       0.00000000
Si      -0.60740523      -2.22779108       0.78557587       0.00000000
Si       1.68627564      -1.13581211      -3.08018494       0.00000000
Si       0.09109368       0.60020505      -3.65792532       0.00000000
Si      -2.52532467      -1.79149927       2.18201275       0.00000000
Si       3.65052384      -1.21716599       0.45516629       0.00000000
Si      -2.63575458       2.04973812       1.99395957       0.00000000
Si       1.30437288       3.34596600       1.54624196       0.00000000
