10
Lattice="16.28999089631971 0.0 0.0 0.0 16.28999089631971 0.0 0.0 0.0 34.64500226677339" Properties=species:S:1:pos:R:3:initial_magmoms:R:1 pbc="T T T"
Si       1.57121937      -1.22742285       1.30504332       0.00000000
Si      -0.35629488      -1.43642355      -1.88153648       0.00000000
Si      -1.91791944       0.43629181       1.39643689       0.00000000
Si       0.60740523       2.22779108      -0.78557587       0.00000000
Si      -2.60364699      -0.82958847      -2.38576012       0.00000000
Si       3.57050736      -1.23087633       0.01642174       0.00000000
Si      -0.94367970       1.36629443       3.41717706       0.00000000
Si       0.37602207       3.77496641       1.00841264       0.00000000
Si       2.80350900       2.19030779      -1.76959841       0.00000000
Si      -0.86604156       2.93963150      -2.55998994       0.00000000
