10
Lattice="16.28999089631971 0.0 0.0 0.0 16.28999089631971 0.0 0.0 0.0 34.64500226677339" Properties=species:S:1:pos:R:3:initial_magmoms:R:1 pbc="T T T"
Si      -1.84831227      -0.69656040      -1.33251682       0.00000000
Si       1.80138078      -1.26982179      -1.03914278       0.00000000
Si      -0.14162526       2.23917453      -1.13826219       0.00000000
Si      -0.71293185       0.13520700       2.42113269       0.00000000
Si      -3.09001752       0.75028482       0.23007759       0.00000000
Si      -0.58863915      -0.35181513      -3.36891655       0.00000000
Si       0.71671113       1.64141298      -3.24793613       0.00000000
Si      -2.52025848       2.64181446      -0.98908072       0.00000000
Si       0.82714104      -2.19982441      -3.05988296       0.00000000
Si       3.63952809       0.23814351      -1.31692656       0.00000000
