10
Lattice="16.28999089631971 0.0 0.0 0.0 16.28999089631971 0.0 0.0 0.0 34.64500226677339" Properties=species:S:1:pos:R:3:initial_magmoms:R:1 pbc="T T T"
Si       1.16163990       1.07658981      -1.72185757       0.00000000
Si      -0.78278337      -2.14954695      -0.61089567       0.00000000
Si      -1.41628518       1.85103270       0.42568338       0.00000000
Si       1.08543528       0.06366132       2.15554396       0.00000000
Si       1.88356383       2.76408720      -0.19276490       0.00000000
Si       2.80935711       1.60511886       1.56941948       0.00000000
Si      -2.24701002       1.23443991       2.53747067       0.00000000
Si      -0.48107628       2.05864875      -3.09144457       0.00000000
Si      -3.13699788      -2.07674694      -0.32479708       0.00000000
Si      -0.06874380       3.86716455       0.48693578       0.00000000
