10
Lattice="16.28999089631971 0.0 0.0 0.0 16.28999089631971 0.0 0.0 0.0 34.64500226677339" Properties=species:S:1:pos:R:3:initial_magmoms:R:1 pbc="T T T"
Si       1.72392183       1.54145754      -0.58612448       0.00000000
Si      -1.08543528      -0.06366132      -2.15554396       0.00000000
Si       0.61043517      -2.15598150       0.93898402       0.00000000
Si      -1.24067898       1.29391470       1.74257530       0.00000000
Si       1.10581407       1.55198088       2.70428645       0.00000000
Si      -2.50172046       1.78737138      -1.72986057       0.00000000
Si      -3.33244530       1.17077859       0.38192672       0.00000000
Si       0.79812855       2.70042588      -2.34830886       0.00000000
Si       2.75517657      -0.15351696       2.61382830       0.00000000
Si       3.65342346       0.36787707      -1.36716184       0.00000000
