10
Lattice="16.28999089631971 0.0 0.0 0.0 16.28999089631971 0.0 0.0 0.0 34.64500226677339" Properties=species:S:1:pos:R:3:initial_magmoms:R:1 pbc="T T T"
Si      -1.50309459      -1.36068741       1.11951923       0.00000000
Si       0.34396335       0.97774209      -2.09394511       0.00000000
Si      -0.83737116       2.08116153       0.75671656       0.00000000
Si       1.80483426      -1.46807109       0.44224370       0.00000000
Si      -2.50059645       0.70211529       2.08833261       0.00000000
Si       0.32951412      -2.95674903       1.90194240       0.00000000
Si       1.85763015      -2.43574596      -1.78612409       0.00000000
Si       1.09343367      -0.84677049      -3.40799613       0.00000000
Si      -1.75891275       1.34319195      -2.97853644       0.00000000
Si       0.75111561       2.78832672       2.34817028       0.00000000
