10
Lattice="16.28999089631971 0.0 0.0 0.0 16.28999089631971 0.0 0.0 0.0 34.64500226677339" Properties=species:S:1:pos:R:3:initial_magmoms:R:1 pbc="T T T"
Si       1.70834859       0.98670159       1.30770202       0.00000000
Si      -0.98999217      -1.85870529       1.33130221       0.00000000
Si      -1.70450415       1.87988229       0.00838410       0.00000000
Si       1.68309909      -0.22017564      -1.94812421       0.00000000
Si       0.28825155       2.15790372       2.81317372       0.00000000
Si      -1.56861297      -2.30638707      -2.20796187       0.00000000
Si       0.09461232      -0.92734083      -3.53957792       0.00000000
Si      -2.43921573      -0.57228399       2.78605013       0.00000000
Si       2.78668143       2.79383274      -0.01139821       0.00000000
Si      -3.61191654       0.95889456       1.28567471       0.00000000
