10
Lattice="16.28999089631971 0.0 0.0 0.0 16.28999089631971 0.0 0.0 0.0 34.64500226677339" Properties=species:S:1:pos:R:3:initial_magmoms:R:1 pbc="T T T"
Si       0.99750186      -2.06280270      -0.96881338       0.00000000
Si      -0.14312394      -1.35957969       2.10253707       0.00000000
Si      -2.34432648       0.38512818      -0.80515030       0.00000000
Si       1.66322529       1.37904624      -1.33161605       0.00000000
Si       2.50059645      -0.70211529      -2.08833261       0.00000000
Si       1.56861297       2.30638707       2.20796187       0.00000000
Si       0.57862080       0.44768178       3.53926408       0.00000000
Si      -3.46136436      -1.52225163       0.27144374       0.00000000
Si       3.25171206       2.08621143       0.25983766       0.00000000
Si      -0.44023725      -3.83632758      -1.31706514       0.00000000
