10
Lattice="16.28999089631971 0.0 0.0 0.0 16.28999089631971 0.0 0.0 0.0 34.64500226677339" Properties=species:S:1:pos:R:3:initial_magmoms:R:1 pbc="T T T"
Si      -1.35501849      -1.35731538       1.35690692       0.00000000
Si       1.35703845      -1.35705474      -1.35732266       0.00000000
Si      -1.35713619       1.35677781      -1.35756517       0.00000000
Si       1.36014984       1.35949824       1.35739195       0.00000000
Si      -0.00493587      -2.71296918       2.71405635       0.00000000
Si       0.00210141      -2.71336014      -2.71398706       0.00000000
Si      -2.71353933       0.00156384      -2.71478389       0.00000000
Si      -2.71461447      -2.71487511      -0.00013858       0.00000000
Si      -2.71492398       2.71479252      -0.00017323       0.00000000
Si       0.00252495       2.71485882      -2.71495712       0.00000000
