10
Lattice="16.28999089631971 0.0 0.0 0.0 16.28999089631971 0.0 0.0 0.0 34.64500226677339" Properties=species:S:1:pos:R:3:initial_magmoms:R:1 pbc="T T T"
Si      -0.69688620      -0.98482824      -1.99732014       0.00000000
Si      -1.78282647       0.60574365       1.39137871       0.00000000
Si       0.82474641       2.17598562      -0.30861785       0.00000000
Si       1.71774792      -1.52445078       0.60964845       0.00000000
Si       1.94758353       2.10279465       1.80649536       0.00000000
Si       3.26326167       0.17790309       1.37856006       0.00000000
Si       1.24981767      -0.72342261      -3.38873350       0.00000000
Si      -2.67823890      -1.47180150       2.21676171       0.00000000
Si      -0.55776960      -3.39820803      -1.62634125       0.00000000
Si      -3.38555070       1.84086774       0.06049021       0.00000000
