10
Lattice="16.28999089631971 0.0 0.0 0.0 16.28999089631971 0.0 0.0 0.0 34.64500226677339" Properties=species:S:1:pos:R:3:initial_magmoms:R:1 pbc="T T T"
Si      -2.24735211       0.60683508      -0.50422364       0.00000000
Si       0.35629488       1.43642355       1.88153648       0.00000000
Si       1.15499358       0.67199508      -1.99773588       0.00000000
Si       0.13165578      -2.44380951       0.41428517       0.00000000
Si       3.45102021      -1.06728822      -0.11245774       0.00000000
Si      -2.57541642      -0.82505592      -2.41285253       0.00000000
Si       2.47067172      -1.25289648      -2.42567119       0.00000000
Si       1.92751425       0.20900070       3.18657980       0.00000000
Si      -3.75266214      -0.31638438       1.13926689       0.00000000
Si       0.96370011       3.66421463       1.09596061       0.00000000
