10
Lattice="16.28999089631971 0.0 0.0 0.0 16.28999089631971 0.0 0.0 0.0 34.64500226677339" Properties=species:S:1:pos:R:3:initial_magmoms:R:1 pbc="T T T"
Si       1.35695700       1.34431596      -1.36817348       0.00000000
Si      -1.33332021      -1.35949824      -1.38097135       0.00000000
Si      -1.35549090       1.35821133       1.36068322       0.00000000
Si       1.35920502      -1.35734796       1.36102967       0.00000000
Si       0.27999252      -2.55279613      -2.77885640       0.00000000
Si      -2.55366927       0.11376936      -2.80933709       0.00000000
Si       2.71212210      -2.71393192       0.00467708       0.00000000
Si      -2.71472850       0.00032580       2.71748621       0.00000000
Si       0.00042354       2.71521720       2.71724369       0.00000000
Si       0.00104256      -2.71523023       2.71734763       0.00000000
