10
Lattice="16.28999089631971 0.0 0.0 0.0 16.28999089631971 0.0 0.0 0.0 34.64500226677339" Properties=species:S:1:pos:R:3:initial_magmoms:R:1 pbc="T T T"
Si      -0.89909397      -2.19091445      -0.01898547       0.00000000
Si       1.74623913       0.18138915      -1.64030319       0.00000000
Si      -1.99544355       1.28642130      -0.42630699       0.00000000
Si       0.01974348       0.32057091       3.28434805       0.00000000
Si       3.41176687      -1.32710232      -0.69019812       0.00000000
Si      -3.83359086      -0.22154400      -0.14852321       0.00000000
Si      -1.31869179      -2.81526128      -2.26065695       0.00000000
Si       2.54835126       2.45418624      -1.59131513       0.00000000
Si      -3.24891018      -2.08915082       1.19220448       0.00000000
Si       1.67940126      -1.52431069       3.36586779       0.00000000
