10
Lattice="16.28999089631971 0.0 0.0 0.0 16.28999089631971 0.0 0.0 0.0 34.64500226677339" Properties=species:S:1:pos:R:3:initial_magmoms:R:1 pbc="T T T"
Si       1.23532635      -1.42625466       1.43884239       0.00000000
Si       0.82116261       1.72774998      -1.40534901       0.00000000
Si      -0.68732397      -1.84005324      -1.38463129       0.00000000
Si      -1.48183614       1.25726220       1.41604597       0.00000000
Si      -2.55880062      -2.63984989       0.00536305       0.00000000
Si       2.58841814      -2.76263576       0.13310271       0.00000000
Si       2.58943626      -0.08860131       2.78508557       0.00000000
Si      -0.12052971       2.62883133       2.78182894       0.00000000
Si       2.62975401       2.78343972      -0.12363076       0.00000000
Si      -2.71552671       2.72181465       0.02664895       0.00000000
