10
Lattice="16.28999089631971 0.0 0.0 0.0 16.28999089631971 0.0 0.0 0.0 34.64500226677339" Properties=species:S:1:pos:R:3:initial_magmoms:R:1 pbc="T T T"
Si       1.35604476       1.35514881      -1.35725337       0.00000000
Si      -1.35938421      -1.35985662      -1.35732266       0.00000000
Si      -1.36438524       1.35565380       1.35811949       0.00000000
Si       1.35534429      -1.36146933       1.36148006       0.00000000
Si      -0.00192222       2.71288773      -2.71467996       0.00000000
Si       2.71326240      -0.00232947      -2.71450673       0.00000000
Si      -2.71362078       2.71446786      -0.00065826       0.00000000
Si       2.71466334       2.71480995       0.00155903       0.00000000
Si      -2.71707426      -0.00200367      -2.71443744       0.00000000
Si       2.71608057      -2.71592419      -0.00045039       0.00000000
