10
Lattice="16.28999089631971 0.0 0.0 0.0 16.28999089631971 0.0 0.0 0.0 34.64500226677339" Properties=species:S:1:pos:R:3:initial_magmoms:R:1 pbc="T T T"
Si       1.34289032       1.35448092      -1.36962164       0.00000000
Si      -1.37212299      -1.36236528      -1.36785474       0.00000000
Si      -1.20819672       1.51422066       1.37003738       0.00000000
Si       1.56606751      -1.20674691       1.35101726       0.00000000
Si       0.29292678      -2.76122342       2.43914810       0.00000000
Si       2.71517063       2.71158453       0.02251926       0.00000000
Si       2.70191871      -0.00232947      -2.72815687       0.00000000
Si       2.70969230      -2.72763181      -0.00069290       0.00000000
Si      -2.73709467      -2.70093901       0.00530069       0.00000000
Si      -0.01280394       2.71391400      -2.72777578       0.00000000
