10
Lattice="16.28999089631971 0.0 0.0 0.0 16.28999089631971 0.0 0.0 0.0 34.64500226677339" Properties=species:S:1:pos:R:3:initial_magmoms:R:1 pbc="T T T"
Si      -1.64936250       1.70549784       0.09045815       0.00000000
Si      -1.28238138      -1.92544542       0.55539434       0.00000000
Si       1.50930108       1.14491007       1.52372270       0.00000000
Si       1.14533361      -0.91839762      -2.05091599       0.00000000
Si      -2.14474140      -2.00246454      -1.67484428       0.00000000
Si      -0.54631773       3.17685951      -1.37776322       0.00000000
Si       3.06615986       2.12402052       0.04559285       0.00000000
Si      -1.03125474       1.69497450      -3.19995278       0.00000000
Si       2.22905844      -0.57572118       2.99658650       0.00000000
Si      -2.75517657       0.15351696      -2.61382830       0.00000000
