10
Lattice="16.28999089631971 0.0 0.0 0.0 16.28999089631971 0.0 0.0 0.0 34.64500226677339" Properties=species:S:1:pos:R:3:initial_magmoms:R:1 pbc="T T T"
Si       1.55685878       0.97911045      -1.47812985       0.00000000
Si       0.71975736      -1.72063125       1.47286380       0.00000000
Si      -1.50930108      -1.14491007      -1.52372270       0.00000000
Si      -0.40355217       1.89708453       1.53103280       0.00000000
Si      -3.15866358       0.56058777      -1.43326454       0.00000000
Si      -2.34259974       1.26438093       2.61396688       0.00000000
Si       2.49527844       2.77151544      -0.18299500       0.00000000
Si       0.74647296      -0.73086714       3.66461181       0.00000000
Si       0.29299194       2.04931458      -3.24481808       0.00000000
Si       2.75465107      -2.68825725       0.64006677       0.00000000
