10
Lattice="16.28999089631971 0.0 0.0 0.0 16.28999089631971 0.0 0.0 0.0 34.64500226677339" Properties=species:S:1:pos:R:3:initial_magmoms:R:1 pbc="T T T"
Si      -1.00947501      -1.81532502      -1.19090326       0.00000000
Si       1.19738016      -1.33180524       1.63955140       0.00000000
Si       1.88678015       1.08110214      -1.36513307       0.00000000
Si      -1.51097895       1.38064266       1.60859953       0.00000000
Si       2.58803532      -2.54042550       0.11184452       0.00000000
Si      -2.75724540      -2.60205057       0.26212423       0.00000000
Si       2.61329623       2.76227901       0.18315091       0.00000000
Si       0.77944392      -3.59611524      -1.16987373       0.00000000
Si       3.58325333      -0.78410286      -1.23417489       0.00000000
Si       2.54880249       0.01811448       3.02253562       0.00000000
