10
Lattice="16.28999089631971 0.0 0.0 0.0 16.28999089631971 0.0 0.0 0.0 34.64500226677339" Properties=species:S:1:pos:R:3:initial_magmoms:R:1 pbc="T T T"
Si       1.35681039       1.35568638       1.35586757       0.00000000
Si      -1.35887922      -1.35871632       1.35600615       0.00000000
Si      -1.36101321       1.35501849      -1.36220761       0.00000000
Si       1.35896067      -1.35804843      -1.36362805       0.00000000
Si       2.71363076      -0.00162900       2.71273984       0.00000000
Si      -0.00094482       2.71344159       2.71339809       0.00000000
Si      -2.71402803       2.71521720      -0.00045039       0.00000000
Si      -2.71603170      -0.00161271       2.71360596       0.00000000
Si      -0.00091224      -2.71645524       2.71343274       0.00000000
Si      -2.71479366      -2.71572219      -0.00055432       0.00000000
