10
Lattice="16.28999089631971 0.0 0.0 0.0 16.28999089631971 0.0 0.0 0.0 34.64500226677339" Properties=species:S:1:pos:R:3:initial_magmoms:R:1 pbc="T T T"
Si       1.44906066      -1.23657390       1.33705532       0.00000000
Si       1.36836000       1.33638273      -1.37003738       0.00000000
Si      -1.35177678      -1.37523438      -1.37201215       0.00000000
Si      -1.21070538       1.57737699       1.48973593       0.00000000
Si      -0.11712510      -2.06534394       2.90162450       0.00000000
Si      -2.68420104      -2.71894761       0.00308341       0.00000000
Si      -2.69030979       2.71498914       0.00148974       0.00000000
Si       0.01330893       2.69723304      -2.72867655       0.00000000
Si      -2.70185940      -0.01958058      -2.72916158       0.00000000
Si       2.74240521       2.69462664       0.00983919       0.00000000
