10
Lattice="16.28999089631971 0.0 0.0 0.0 16.28999089631971 0.0 0.0 0.0 34.64500226677339" Properties=species:S:1:pos:R:3:initial_magmoms:R:1 pbc="T T T"
Si       1.34278959       1.35216774      -1.39051259       0.00000000
Si      -1.37228031      -1.35710361      -1.39214090       0.00000000
Si      -1.23474909       1.52868618       1.35992103       0.00000000
Si       1.54472043      -1.25975457       1.58196098       0.00000000
Si      -2.49960506       0.14097366       2.83351238       0.00000000
Si       2.70921108      -2.69750997      -0.01676819       0.00000000
Si      -2.71517063      -2.71158453      -0.02251926       0.00000000
Si       2.70311862       2.73386925      -0.01694142       0.00000000
Si      -2.72803973       2.72003904      -0.02854750       0.00000000
Si       2.70305346       0.00086337      -2.75181942       0.00000000
