10
Lattice="16.28999089631971 0.0 0.0 0.0 16.28999089631971 0.0 0.0 0.0 34.64500226677339" Properties=species:S:1:pos:R:3:initial_magmoms:R:1 pbc="T T T"
Si       1.66146597       0.86690493       1.45004802       0.00000000
Si      -1.07833284      -1.80713115       1.31910023       0.00000000
Si      -1.80757098       1.83251097       0.21946378       0.00000000
Si       1.41550326       0.15159474      -2.21877112       0.00000000
Si       0.21569589       2.07563922       2.84193255       0.00000000
Si      -2.26784493       1.97684037      -2.07378170       0.00000000
Si       2.66046651       2.54168050       0.09988160       0.00000000
Si      -1.10358234      -3.01400838      -1.93672600       0.00000000
Si       0.08197128       1.87507674      -3.28497166       0.00000000
Si       0.53862885      -1.76133996      -3.33704313       0.00000000
