10
Lattice="16.28999089631971 0.0 0.0 0.0 16.28999089631971 0.0 0.0 0.0 34.64500226677339" Properties=species:S:1:pos:R:3:initial_magmoms:R:1 pbc="T T T"
Si       1.16449065      -1.43775540      -1.59872917       0.00000000
Si      -0.82971486      -1.84668327       1.39848094       0.00000000
Si       1.37694483       1.58698809       1.41039883       0.00000000
Si      -1.54472043       1.25975457      -1.58196098       0.00000000
Si       2.53959471      -2.79617850      -0.20534104       0.00000000
Si      -2.69382354      -2.65857687      -0.25346298       0.00000000
Si       2.66014071       2.82400182      -0.18025805       0.00000000
Si       2.51074512      -0.09888030      -2.97590342       0.00000000
Si      -2.77946952       2.78844075      -0.22203994       0.00000000
Si      -0.20193084       2.61192231      -2.97247357       0.00000000
