10
Lattice="16.28999089631971 0.0 0.0 0.0 16.28999089631971 0.0 0.0 0.0 34.64500226677339" Properties=species:S:1:pos:R:3:initial_magmoms:R:1 pbc="T T T"
Si      -0.41959782      -0.62434683      -2.24167148       0.00000000
Si       0.89909397       2.19091445       0.01898547       0.00000000
Si       1.33353198      -1.72348200       1.06620054       0.00000000
Si      -2.34981621       0.10176363       1.21118996       0.00000000
Si      -1.10848563      -2.84444577      -1.67515609       0.00000000
Si      -2.93449689       1.96937045      -0.12953774       0.00000000
Si       0.45665757      -3.63641670      -0.05207147       0.00000000
Si      -1.09634958       3.47733575      -0.40732152       0.00000000
Si      -0.08197128      -1.87507674       3.28497166       0.00000000
Si       2.64533310       2.37230360      -1.62131772       0.00000000
