10
Lattice="16.28999089631971 0.0 0.0 0.0 16.28999089631971 0.0 0.0 0.0 34.64500226677339" Properties=species:S:1:pos:R:3:initial_magmoms:R:1 pbc="T T T"
Si      -0.87687441      -1.91293470      -1.11827201       0.00000000
Si      -1.33353198       1.72348200      -1.06620054       0.00000000
Si       2.37336082       0.11005524      -1.05119925       0.00000000
Si      -1.41550326      -0.15159474       2.21877112       0.00000000
Si       2.85414225       1.90120590       0.58071985       0.00000000
Si       1.24496325       2.39008576       2.31865272       0.00000000
Si       2.59480545      -2.48833008      -0.41948192       0.00000000
Si       0.24596271       0.71531019       3.66881914       0.00000000
Si      -2.44201761      -1.12096377      -2.74135663       0.00000000
Si      -1.75312980       1.09913517      -3.30787202       0.00000000
