10
Lattice="16.28999089631971 0.0 0.0 0.0 16.28999089631971 0.0 0.0 0.0 34.64500226677339" Properties=species:S:1:pos:R:3:initial_magmoms:R:1 pbc="T T T"
Si       2.33908110       0.01710450       0.46261497       0.00000000
Si      -0.72488871      -1.90254168       1.30043553       0.00000000
Si      -0.92491362       1.88678925       1.43922349       0.00000000
Si      -0.56679426      -1.34581464      -2.53268966       0.00000000
Si       1.63986543       2.08785672      -2.52077177       0.00000000
Si      -1.78158191      -3.25524699      -0.25037957       0.00000000
Si      -1.03668908       0.90176553       3.60294367       0.00000000
Si       0.26292060       0.50086863      -3.93117060       0.00000000
Si      -2.03285354      -1.21195971       3.21169744       0.00000000
Si       2.91455793      -0.08330706       2.81743709       0.00000000
