10
Lattice="16.28999089631971 0.0 0.0 0.0 16.28999089631971 0.0 0.0 0.0 34.64500226677339" Properties=species:S:1:pos:R:3:initial_magmoms:R:1 pbc="T T T"
Si       2.41354269       0.02723688       0.26063450       0.00000000
Si      -0.59256504       1.22121243      -2.07229197       0.00000000
Si      -0.74668473       1.12609512       2.11909739       0.00000000
Si      -0.80672967      -2.41869033       0.44785619       0.00000000
Si      -2.93997522      -2.03160735      -0.36935058       0.00000000
Si       1.11361698       0.29440917      -3.51612325       0.00000000
Si       3.05603658      -1.88419914      -1.17869293       0.00000000
Si      -0.02580336       3.51802098      -1.67830878       0.00000000
Si      -1.74190273      -0.63022752       3.46511681       0.00000000
Si      -4.00713542       0.06939540      -0.77289579       0.00000000
