10
Lattice="16.28999089631971 0.0 0.0 0.0 16.28999089631971 0.0 0.0 0.0 34.64500226677339" Properties=species:S:1:pos:R:3:initial_magmoms:R:1 pbc="T T T"
Si      -1.35587781       1.35558864      -1.35756517       0.00000000
Si      -1.35450945      -1.35479043       1.36549888       0.00000000
Si       1.36021321      -1.35814617      -1.35708014       0.00000000
Si       1.35900612       1.35876519       1.36678075       0.00000000
Si       0.13878119      -2.54614329       2.75396741       0.00000000
Si      -2.63237850       0.13856274       2.70816670       0.00000000
Si      -2.71307916       2.71151937       0.00107400       0.00000000
Si       2.71346912       2.71274112       0.00322199       0.00000000
Si       0.00176173       2.71262709      -2.71516499       0.00000000
Si      -2.71309545      -0.00226431      -2.71509570       0.00000000
