10
Lattice="16.28999089631971 0.0 0.0 0.0 16.28999089631971 0.0 0.0 0.0 34.64500226677339" Properties=species:S:1:pos:R:3:initial_magmoms:R:1 pbc="T T T"
Si      -1.49329064       1.19135286      -1.38846853       0.00000000
Si      -1.26485597      -1.38771252       1.47359135       0.00000000
Si       1.23474909      -1.52868618      -1.35992103       0.00000000
Si       1.25762840       1.48111938       1.47601650       0.00000000
Si      -1.36850924       0.35875467       3.22160592       0.00000000
Si      -0.53855003       2.53197099       2.62370213       0.00000000
Si      -0.13878119       2.54614329      -2.75396741       0.00000000
Si       2.63386950       2.68498296       0.03093800       0.00000000
Si       2.57753868      -0.17651844      -2.75043362       0.00000000
Si      -2.68861826      -2.72605005      -0.01240292       0.00000000
