10
Lattice="16.28999089631971 0.0 0.0 0.0 16.28999089631971 0.0 0.0 0.0 34.64500226677339" Properties=species:S:1:pos:R:3:initial_magmoms:R:1 pbc="T T T"
Si      -1.35494317      -1.35587209       1.35708014       0.00000000
Si       1.35764549      -1.35733330      -1.35680298       0.00000000
Si      -1.35776134       1.35772263      -1.35697621       0.00000000
Si       1.35836225       1.35861858       1.35870846       0.00000000
Si       0.00103348      -2.71211630      -2.71485318       0.00000000
Si      -2.71416448       0.00037467      -2.71336345       0.00000000
Si       2.71476214       2.71487511       0.00038110       0.00000000
Si       2.71495762      -2.71470045       0.00003465       0.00000000
Si       0.00124347       2.71591767      -2.71381383       0.00000000
Si      -2.71512559      -2.71483332      -0.00006929       0.00000000
