10
Lattice="10.86 0.0 0.0 0.0 10.86 0.0 0.0 0.0 10.86" Properties=species:S:1:pos:R:3:initial_magmoms:R:1 pbc="T T T"
Si       1.35750000       1.35750000       1.35750000       0.00000000
Si      -1.35750000      -1.35750000       1.35750000       0.00000000
Si      -1.35750000       1.35750000      -1.35750000       0.00000000
Si       1.35750000      -1.35750000      -1.35750000       0.00000000
Si       0.06444324      -2.57084436       2.59481238       0.00000000
Si      -2.72352510      -2.50140552      -0.10778550       0.00000000
Si      -0.03605520       2.67008304       2.58936066       0.00000000
Si      -0.00828618      -2.59734276      -2.77598976       0.00000000
Si      -0.15436404       2.69881860      -2.69096682       0.00000000
Si      -2.71500000       0.00000000       2.71500000       0.00000000
