10
Lattice="10.86 0.0 0.0 0.0 10.86 0.0 0.0 0.0 10.86" Properties=species:S:1:pos:R:3:initial_magmoms:R:1 pbc="T T T"
Si       1.35750000       1.35750000       1.35750000       0.00000000
Si       1.35750000      -1.35750000      -1.35750000       0.00000000
Si      -1.35750000       1.35750000      -1.35750000       0.00000000
Si      -1.35750000      -1.35750000       1.35750000       0.00000000
Si       2.40199308      -0.00884004       2.60927790       0.00000000
Si      -2.50278474      -0.18306702      -2.56488222       0.00000000
Si      -2.53872048      -2.56931310      -0.10715562       0.00000000
Si      -2.38472568       2.98914984      -0.28555284       0.00000000
Si       2.66003754      -2.75672412      -0.25656750       0.00000000
Si       0.00000000       2.71500000       2.71500000       0.00000000
