10
Lattice="10.86 0.0 0.0 0.0 10.86 0.0 0.0 0.0 10.86" Properties=species:S:1:pos:R:3:initial_magmoms:R:1 pbc="T T T"
Si      -1.42194324       1.21334436      -1.23731238       0.00000000
Si       1.29305676       1.21334436       1.47768762       0.00000000
Si      -1.42194324      -1.50165564       1.47768762       0.00000000
Si      -0.06444324       2.57084436      -2.59481238       0.00000000
Si       2.65055676       2.57084436       0.12018762       0.00000000
Si      -2.77944324       2.57084436       0.12018762       0.00000000
Si       2.52850122      -2.82230766      -0.00489786       0.00000000
Si      -0.06444324       2.57084436       2.83518762       0.00000000
Si      -2.78796834       0.06943884      -2.70259788       0.00000000
Si       2.65055676      -0.14415564       2.83518762       0.00000000
