10
Lattice="16.28999089631971 0.0 0.0 0.0 16.28999089631971 0.0 0.0 0.0 34.433804113860816" Properties=species:S:1:pos:R:3:initial_magmoms:R:1 pbc="T T T"
Si       1.35327546      -1.35050370      -1.35534972       0.00000000
Si      -1.35855342      -1.35561876       1.35717471       0.00000000
Si      -1.35523026       1.35525456      -1.36220205       0.00000000
Si       1.35725022       1.35926028       1.35624500       0.00000000
Si      -0.00488700      -2.70040713      -2.71503122       0.00000000
Si       2.70174537       0.01498336      -2.72095728       0.00000000
Si       2.71410948      -2.71252689      -0.00041321       0.00000000
Si      -0.00076563      -2.71332510       2.71459046       0.00000000
Si       2.71430496       0.00220030       2.71465933       0.00000000
Si      -2.71515204       0.00253361       2.71438386       0.00000000
