10
Lattice="16.28999089631971 0.0 0.0 0.0 16.28999089631971 0.0 0.0 0.0 34.433804113860816" Properties=species:S:1:pos:R:3:initial_magmoms:R:1 pbc="T T T"
Si      -1.72976572       1.32590337       0.81807878       0.00000000
Si      -1.39414285      -1.91776861       0.05406110       0.00000000
Si       1.39329510      -0.84802060       1.72375720       0.00000000
Si       0.45328228      -2.04362515      -1.44043570       0.00000000
Si      -0.45112874      -2.38319020       2.10201275       0.00000000
Si       1.79648889      -0.54944119      -2.74354931       0.00000000
Si      -2.57756248       1.55119407      -1.41705513       0.00000000
Si       2.84059644       1.16181420      -1.34264364       0.00000000
Si       3.38249958      -0.63758638       0.24998956       0.00000000
Si      -0.78727811       2.32676097      -2.76482941       0.00000000
