10
Lattice="16.28999089631971 0.0 0.0 0.0 16.28999089631971 0.0 0.0 0.0 34.433804113860816" Properties=species:S:1:pos:R:3:initial_magmoms:R:1 pbc="T T T"
Si      -0.71268750      -0.96627230       2.00267117       0.00000000
Si       1.81560195      -1.05462112      -1.05291745       0.00000000
Si      -2.02487958      -0.15845120      -1.29722543       0.00000000
Si       0.79371396       2.26543401       0.23862640       0.00000000
Si      -0.20025297       2.92183956      -1.79248711       0.00000000
Si      -2.39567256       2.21231232      -1.09578756       0.00000000
Si      -2.02509135       0.86157810       2.79093025       0.00000000
Si       3.16604295       1.88128323       0.52645873       0.00000000
Si       3.71817621      -0.38512981       0.15412579       0.00000000
Si      -2.41225578      -2.53122884       1.68922007       0.00000000
