10
Lattice="16.28999089631971 0.0 0.0 0.0 16.28999089631971 0.0 0.0 0.0 34.433804113860816" Properties=species:S:1:pos:R:3:initial_magmoms:R:1 pbc="T T T"
Si       1.28857158      -1.40142870       1.34189298       0.00000000
Si       1.37766159       1.18177434      -1.54560146       0.00000000
Si      -1.45805274       1.32758613       1.34297765       0.00000000
Si      -1.07282682      -1.70469963      -1.30739201       0.00000000
Si      -1.12873410      -0.28877283      -3.38867185       0.00000000
Si       2.51182026       2.61040734       0.02454787       0.00000000
Si       2.61705366      -0.04310334       2.72165973       0.00000000
Si      -0.10518453       2.68610697       2.72203850       0.00000000
Si      -0.09734904      -2.75314195       2.71838852       0.00000000
Si      -2.86790989       2.65046445      -0.10950300       0.00000000
