10
Lattice="16.28999089631971 0.0 0.0 0.0 16.28999089631971 0.0 0.0 0.0 34.433804113860816" Properties=species:S:1:pos:R:3:initial_magmoms:R:1 pbc="T T T"
Si      -1.04410755      -1.71125540      -1.40090567       0.00000000
Si       1.77601725       0.97098174      -1.37432276       0.00000000
Si       0.54190314      -1.79940059       1.59263320       0.00000000
Si       1.49525910       2.36608992       1.43847297       0.00000000
Si      -2.84059644      -1.16181420       1.34264364       0.00000000
Si      -2.28760633       2.62141938       0.23487311       0.00000000
Si      -2.34143338      -0.33929626      -2.81775420       0.00000000
Si       0.39708504       2.38493745      -2.79371939       0.00000000
Si      -1.44730134      -2.00983481       3.06640084       0.00000000
Si      -2.38731416      -3.20543936      -0.09779206       0.00000000
