10
Lattice="16.28999089631971 0.0 0.0 0.0 16.28999089631971 0.0 0.0 0.0 34.433804113860816" Properties=species:S:1:pos:R:3:initial_magmoms:R:1 pbc="T T T"
Si       1.35571896       1.35545832       1.35927518       0.00000000
Si      -1.35930276      -1.35964485       1.35920631       0.00000000
Si      -1.36443411       1.36063854      -1.35669264       0.00000000
Si       1.35780408      -1.36857177      -1.35707141       0.00000000
Si       2.71308321       2.71189404       0.00151509       0.00000000
Si       2.71324611      -0.00229689       2.71634659       0.00000000
Si       2.71376739      -2.71624347       0.00323678       0.00000000
Si      -2.71738377       2.71301805       0.00251367       0.00000000
Si      -0.00255753       2.71345788       2.71696640       0.00000000
Si      -0.00285075      -2.71748151       2.71610555       0.00000000
