10
Lattice="16.28999089631971 0.0 0.0 0.0 16.28999089631971 0.0 0.0 0.0 34.433804113860816" Properties=species:S:1:pos:R:3:initial_magmoms:R:1 pbc="T T T"
Si      -1.35697329      -1.35806472      -1.35776009       0.00000000
Si       1.35912357       1.35711990      -1.35751905       0.00000000
Si      -1.35879777       1.35759231       1.36061810       0.00000000
Si       1.36127385      -1.35601218       1.36220205       0.00000000
Si      -2.71142163      -2.71636402      -0.00099858       0.00000000
Si      -2.71342530      -0.00022806      -2.71465933       0.00000000
Si       0.00159642       2.71487511      -2.71459046       0.00000000
Si      -2.71391400       2.71559187      -0.00048207       0.00000000
Si       2.71612944       2.71467963      -0.00075754       0.00000000
Si       0.00175932      -2.71518788      -2.71576121       0.00000000
