10
Lattice="16.28999089631971 0.0 0.0 0.0 16.28999089631971 0.0 0.0 0.0 34.433804113860816" Properties=species:S:1:pos:R:3:initial_magmoms:R:1 pbc="T T T"
Si       1.35723393       1.35728280      -1.35641717       0.00000000
Si      -1.35770634      -1.35803214      -1.35645160       0.00000000
Si       1.35511623      -1.35799956       1.36110017       0.00000000
Si      -1.35941679       1.35866745       1.35875867       0.00000000
Si      -2.71478551       2.71383255       0.00006887       0.00000000
Si      -0.00014661       2.71456560      -2.71414282       0.00000000
Si      -2.71463565      -0.00070047      -2.71410839       0.00000000
Si       2.71391400      -2.71559187       0.00048207       0.00000000
Si       2.71551042      -0.00071676      -2.71410839       0.00000000
Si       0.00048870      -2.71581993      -2.71417726       0.00000000
