10
Lattice="16.28999089631971 0.0 0.0 0.0 16.28999089631971 0.0 0.0 0.0 34.433804113860816" Properties=species:S:1:pos:R:3:initial_magmoms:R:1 pbc="T T T"
Si      -1.35046122      -0.94102510      -1.61325906       0.00000000
Si      -1.07206512       0.33631194       2.07563644       0.00000000
Si       0.62095851       2.10174232      -0.89231810       0.00000000
Si       1.83626093      -1.42403989       0.59880419       0.00000000
Si       2.54257904       1.34319847      -1.94427140       0.00000000
Si       0.85232864       0.69041907       3.36728359       0.00000000
Si       2.79732206      -0.04838977       2.28179174       0.00000000
Si       0.22059755      -2.04887542      -2.98499928       0.00000000
Si      -2.59830780      -2.51126707      -0.43276429       0.00000000
Si       0.51190836       3.69698944       0.81535850       0.00000000
