10
Lattice="16.28999089631971 0.0 0.0 0.0 16.28999089631971 0.0 0.0 0.0 34.433804113860816" Properties=species:S:1:pos:R:3:initial_magmoms:R:1 pbc="T T T"
Si       0.50575563       1.10289816      -2.04561014       0.00000000
Si      -2.07461295      -1.15683435       0.33049584       0.00000000
Si       1.75309722      -1.60712253       0.31369213       0.00000000
Si      -0.35859177       2.10435849       1.09554652       0.00000000
Si      -1.64362842       1.80577908      -2.52138228       0.00000000
Si      -2.11025547       2.83419936      -0.43985766       0.00000000
Si      -1.63766628      -3.30455682      -0.49178387       0.00000000
Si       3.65278815      -0.25749603       0.73388808       0.00000000
Si       1.62163692       3.27736881       0.76050542       0.00000000
Si      -2.81833290      -0.92958885       2.57079482       0.00000000
