10
Lattice="16.28999089631971 0.0 0.0 0.0 16.28999089631971 0.0 0.0 0.0 34.433804113860816" Properties=species:S:1:pos:R:3:initial_magmoms:R:1 pbc="T T T"
Si       0.19357407      -0.20168649      -2.37748333       0.00000000
Si      -1.67635503      -1.07419518       1.40799904       0.00000000
Si       0.25386336       1.98775467       1.39122977       0.00000000
Si      -0.58419198      -2.49201162      -0.10516090       0.00000000
Si      -0.54219636       0.35443782       2.97814837       0.00000000
Si      -1.77903090       3.15185436       0.12172357       0.00000000
Si       0.49314717       2.02893579      -3.05517541       0.00000000
Si      -1.72755450      -1.26312660      -3.19039704       0.00000000
Si       2.21886090      -1.29440340      -2.94278341       0.00000000
Si      -2.16793836      -2.98457235      -1.66301593       0.00000000
