10
Lattice="16.28999089631971 0.0 0.0 0.0 16.28999089631971 0.0 0.0 0.0 34.433804113860816" Properties=species:S:1:pos:R:3:initial_magmoms:R:1 pbc="T T T"
Si       1.35684297       1.35674523      -1.35824216       0.00000000
Si       1.35837423      -1.35713619       1.35786339       0.00000000
Si      -1.35935163      -1.35788553      -1.35772565       0.00000000
Si      -1.36317978       1.35610992       1.35817329       0.00000000
Si      -2.70544320       0.00249237       2.71741404       0.00000000
Si       2.71344159      -0.01995525       2.71231783       0.00000000
Si       2.71277370       2.71619460      -0.00382215       0.00000000
Si       2.71378368      -0.00122175      -2.71548574       0.00000000
Si       2.71345788      -2.71608057      -0.00158396       0.00000000
Si      -0.00197109       2.71415835      -2.71558905       0.00000000
