10
Lattice="16.28999089631971 0.0 0.0 0.0 16.28999089631971 0.0 0.0 0.0 34.433804113860816" Properties=species:S:1:pos:R:3:initial_magmoms:R:1 pbc="T T T"
Si      -2.14938405       0.70288092      -0.47577214       0.00000000
Si       1.14761421      -1.28668194      -1.55516920       0.00000000
Si      -0.50575563      -1.10289816       2.04561014       0.00000000
Si       1.16390421       2.07632340       0.43197231       0.00000000
Si      -0.86434740       1.00146033       3.14115667       0.00000000
Si      -2.61601110       1.73130120       1.60575248       0.00000000
Si       3.38768469      -0.70644843      -1.25893502       0.00000000
Si       1.11588129       2.17447065       2.80611557       0.00000000
Si       1.24734159      -2.71002069       2.35930227       0.00000000
Si      -2.21342004       1.96191873      -2.41026433       0.00000000
