10
Lattice="16.28999089631971 0.0 0.0 0.0 16.28999089631971 0.0 0.0 0.0 34.433804113860816" Properties=species:S:1:pos:R:3:initial_magmoms:R:1 pbc="T T T"
Si      -1.25931474      -2.06477379       0.24943862       0.00000000
Si       1.31826825       0.82569123       1.91025078       0.00000000
Si      -1.52757846       1.57649733      -1.22308941       0.00000000
Si       2.33282574      -0.79496829      -0.58551273       0.00000000
Si       0.37432791      -3.58363710      -0.52001960       0.00000000
Si       3.08167704      -0.90429048       1.92192385       0.00000000
Si      -1.06241751       0.85382406      -3.51713959       0.00000000
Si       2.41031727      -2.92177440       0.51240973       0.00000000
Si       2.35667430       2.86979301       1.23903227       0.00000000
Si       2.46161448      -1.60375050      -2.76951241       0.00000000
