10
Lattice="16.28999089631971 0.0 0.0 0.0 16.28999089631971 0.0 0.0 0.0 34.433804113860816" Properties=species:S:1:pos:R:3:initial_magmoms:R:1 pbc="T T T"
Si       1.24297587      -1.43119053      -1.35243318       0.00000000
Si       1.35816246       1.34990343       1.35968150       0.00000000
Si      -1.35542574      -1.36806678       1.36012914       0.00000000
Si      -1.46828286       1.25664318      -1.40894252       0.00000000
Si      -0.54521001      -2.23218612      -2.71628430       0.00000000
Si       2.41383591       0.11067426      -2.72388295       0.00000000
Si      -2.43107073      -0.44486361      -2.72852381       0.00000000
Si      -2.72414412       2.69058672      -0.01015798       0.00000000
Si       0.00488700       2.70040713       2.71503122       0.00000000
Si       2.70663237       2.71539050      -0.00592606       0.00000000
