10
Lattice="16.28999089631971 0.0 0.0 0.0 16.28999089631971 0.0 0.0 0.0 34.433804113860816" Properties=species:S:1:pos:R:3:initial_magmoms:R:1 pbc="T T T"
Si       1.35695700      -1.35729909      -1.35734688       0.00000000
Si      -1.35684297      -1.35726651       1.35834546       0.00000000
Si      -1.35778779       1.35770634      -1.35741575       0.00000000
Si       1.35633798       1.35777150       1.36017046       0.00000000
Si       0.00076563       2.71332510      -2.71459046       0.00000000
Si      -2.71246419      -0.00522909       2.71593338       0.00000000
Si      -2.71625976      -0.00247608      -2.71338528       0.00000000
Si      -2.71490769      -2.71495656       0.00006887       0.00000000
Si       2.71487511       0.00079821      -2.71500367       0.00000000
Si      -0.00242721      -2.71544526      -2.71479707       0.00000000
