10
Lattice="16.28999089631971 0.0 0.0 0.0 16.28999089631971 0.0 0.0 0.0 34.433804113860816" Properties=species:S:1:pos:R:3:initial_magmoms:R:1 pbc="T T T"
Si       1.40384614      -1.24471305       1.47561329       0.00000000
Si      -1.30487103       1.47543091       1.45035608       0.00000000
Si       1.80216922       1.16880424      -1.18718009       0.00000000
Si      -1.19193018      -1.57403169      -1.55217487       0.00000000
Si       3.01644211      -0.96000228      -1.56037012       0.00000000
Si       2.65970740      -2.67865659       0.07682875       0.00000000
Si      -2.75929861      -2.66355576      -0.10884876       0.00000000
Si       0.06133999      -2.58735114       2.84300797       0.00000000
Si      -2.63414254       2.84165692      -0.04344171       0.00000000
Si      -2.65450504       0.12498177       2.84021883       0.00000000
