10
Lattice="16.28999089631971 0.0 0.0 0.0 16.28999089631971 0.0 0.0 0.0 34.433804113860816" Properties=species:S:1:pos:R:3:initial_magmoms:R:1 pbc="T T T"
Si      -0.21989871       1.00950759       2.11781787       0.00000000
Si       1.34501643      -1.85433957       0.57108496       0.00000000
Si      -2.27532204      -0.23627016      -0.61653761       0.00000000
Si       0.26357220       1.71141111      -2.66173455       0.00000000
Si      -1.66513122      -0.12800682      -2.83686497       0.00000000
Si       0.05512536      -0.91587267       3.48504726       0.00000000
Si       2.28879387      -1.18556991       2.61407813       0.00000000
Si       2.41942338      -2.49706152      -1.39360570       0.00000000
Si      -3.35712465       1.89998415       0.40074084       0.00000000
Si       1.62140886       2.42859858       2.55402555       0.00000000
