10
Lattice="16.28999089631971 0.0 0.0 0.0 16.28999089631971 0.0 0.0 0.0 34.433804113860816" Properties=species:S:1:pos:R:3:initial_magmoms:R:1 pbc="T T T"
Si       1.08822087       0.14908608       2.07911425       0.00000000
Si       1.56019104      -0.59548095      -1.65802303       0.00000000
Si      -1.26167679      -2.00168262       0.07389498       0.00000000
Si      -0.96396075       2.15596521      -0.71846172       0.00000000
Si      -3.19012120      -0.79703712       0.41771671       0.00000000
Si       3.08237751       0.95501754       1.05067925       0.00000000
Si       3.20774535       1.09937952      -1.33902809       0.00000000
Si       0.10766061      -1.29371922      -3.54482438       0.00000000
Si      -3.38725789       0.03935664      -1.77354851       0.00000000
Si      -2.42246961       2.79446805       1.01249214       0.00000000
