10
Lattice="16.28999089631971 0.0 0.0 0.0 16.28999089631971 0.0 0.0 0.0 34.433804113860816" Properties=species:S:1:pos:R:3:initial_magmoms:R:1 pbc="T T T"
Si       1.34509788      -1.29558117      -1.36994966       0.00000000
Si       1.36666584       1.33152831       1.34165195       0.00000000
Si      -1.35104373      -1.38130403       1.34543967       0.00000000
Si      -1.14025113       1.43860248      -1.53818988       0.00000000
Si      -1.76945238      -0.53076078      -2.75729671       0.00000000
Si      -0.26687907      -2.47857726      -2.60418943       0.00000000
Si       2.20206591       0.58254669      -2.80192294       0.00000000
Si      -2.68771968       2.68231140      -0.03779456       0.00000000
Si       0.00990432       2.68975593       2.70034175       0.00000000
Si      -2.70311373      -0.02406033       2.70275212       0.00000000
