10
Lattice="16.28999089631971 0.0 0.0 0.0 16.28999089631971 0.0 0.0 0.0 34.433804113860816" Properties=species:S:1:pos:R:3:initial_magmoms:R:1 pbc="T T T"
Si       2.25662112       0.66139029       0.33968967       0.00000000
Si       0.42409386      -1.40622122      -1.88149854       0.00000000
Si      -1.42262199       1.94186574      -0.61113150       0.00000000
Si      -0.43587153      -1.11868969       2.18826947       0.00000000
Si       2.07669807       2.68890885       1.42328765       0.00000000
Si      -2.46290139       0.92188368      -2.58463722       0.00000000
Si       1.46670273      -0.44919838       3.39531272       0.00000000
Si       2.13724800      -2.93989607      -1.26685480       0.00000000
Si       3.30747273      -0.63549245       1.95298316       0.00000000
Si      -1.41721371      -2.82531221      -2.31770622       0.00000000
