10
Lattice="16.28999089631971 0.0 0.0 0.0 16.28999089631971 0.0 0.0 0.0 34.433804113860816" Properties=species:S:1:pos:R:3:initial_magmoms:R:1 pbc="T T T"
Si      -0.75866277       2.20320621      -0.29960870       0.00000000
Si       1.97353513      -0.88606034      -0.99165968       0.00000000
Si      -1.83320071      -1.18960006      -0.97595786       0.00000000
Si       0.22342549      -0.47501640       2.33723019       0.00000000
Si      -1.90735279      -1.47196766       2.68966038       0.00000000
Si      -0.65985251      -2.57254028      -2.48567441       0.00000000
Si       1.66751119       1.37640726       2.93179902       0.00000000
Si       2.12014513      -2.06087885       2.36226358       0.00000000
Si       3.52649341      -1.17368310       0.72830980       0.00000000
Si      -0.83649639       3.23270163       1.79014561       0.00000000
