10
Lattice="16.28999089631971 0.0 0.0 0.0 16.28999089631971 0.0 0.0 0.0 34.433804113860816" Properties=species:S:1:pos:R:3:initial_magmoms:R:1 pbc="T T T"
Si      -0.02704140       2.18515689       0.90671144       0.00000000
Si      -0.41941863       0.05528826      -2.34828345       0.00000000
Si       1.75790277      -1.55602080       0.55183645       0.00000000
Si      -1.98281880      -0.83921193       1.17512309       0.00000000
Si       1.15777917       1.86398325      -2.63232806       0.00000000
Si      -0.88089804      -0.86700267       3.26649579       0.00000000
Si      -0.67412907       1.47761703       3.09701251       0.00000000
Si       0.13271463      -2.21112478      -2.72061638       0.00000000
Si       0.87610878      -3.32569961      -0.77858318       0.00000000
Si       1.00812294      -2.24524093       2.70639521       0.00000000
