10
Lattice="16.28999089631971 0.0 0.0 0.0 16.28999089631971 0.0 0.0 0.0 34.433804113860816" Properties=species:S:1:pos:R:3:initial_magmoms:R:1 pbc="T T T"
Si      -0.56553993       1.99904364       1.12753555       0.00000000
Si      -1.89969093      -1.34962650      -0.42019595       0.00000000
Si       1.29383325       0.38318967      -1.95611664       0.00000000
Si       1.55810592      -1.16884008       1.37043174       0.00000000
Si      -3.65278815       0.25749603      -0.73388808       0.00000000
Si       1.58514732      -3.35399697       0.46372030       0.00000000
Si       2.74292649      -1.49001372      -2.16860776       0.00000000
Si       3.42883323       0.30802761       1.65516502       0.00000000
Si      -0.81469548       1.44695925       3.44834081       0.00000000
Si      -1.20660030      -2.91455793      -2.17239548       0.00000000
