10
Lattice="16.28999089631971 0.0 0.0 0.0 16.28999089631971 0.0 0.0 0.0 34.433804113860816" Properties=species:S:1:pos:R:3:initial_magmoms:R:1 pbc="T T T"
Si      -0.20676897      -2.34461970       0.16948328       0.00000000
Si      -2.02528683       1.09271691       0.56530008       0.00000000
Si       1.80512748       0.61235739       1.43162064       0.00000000
Si       0.64708767       0.70753986      -2.19030107       0.00000000
Si      -1.30868973      -2.31682896      -1.92188942       0.00000000
Si       0.67412907      -1.47761703      -3.09701251       0.00000000
Si       2.33841321       2.79720477       0.42570536       0.00000000
Si      -1.72571373       3.32333919      -0.11239200       0.00000000
Si      -1.18991934      -2.79666720       2.27741864       0.00000000
Si       2.51781498       2.18440755      -1.90556778       0.00000000
