10
Lattice="16.28999089631971 0.0 0.0 0.0 16.28999089631971 0.0 0.0 0.0 34.433804113860816" Properties=species:S:1:pos:R:3:initial_magmoms:R:1 pbc="T T T"
Si       1.46098494      -1.24548453       1.48770989       0.00000000
Si      -1.23660648       1.46912994       1.49345001       0.00000000
Si       1.88499735       1.06072335      -1.23364479       0.00000000
Si      -1.90236249      -1.02848544      -1.41132332       0.00000000
Si       2.87885025      -2.46321090      -0.02374556       0.00000000
Si      -2.69842221      -2.66180229       0.17559528       0.00000000
Si       0.12383658      -2.59169013       2.87336138       0.00000000
Si      -2.59341687       0.12325014       2.87184629       0.00000000
Si      -2.71427238       2.77778709       0.16417358       0.00000000
Si       1.04427045       1.69204230      -3.41578504       0.00000000
