10
Lattice="16.28999089631971 0.0 0.0 0.0 16.28999089631971 0.0 0.0 0.0 34.433804113860816" Properties=species:S:1:pos:R:3:initial_magmoms:R:1 pbc="T T T"
Si       1.35642432      -1.35614250       1.36392374       0.00000000
Si      -1.35958261       1.36024758       1.36392374       0.00000000
Si       1.35655464       1.36287027      -1.37320710       0.00000000
Si      -1.36525969      -1.36278882      -1.38604059       0.00000000
Si      -2.71489370      -2.71323796       0.00382215       0.00000000
Si       2.70942285       2.72139111       0.00585375       0.00000000
Si      -2.71763042       2.71642266       0.00637026       0.00000000
Si       2.71725834      -2.71785781       0.00220376       0.00000000
Si      -0.00039910      -2.71435057       2.72127063       0.00000000
Si       2.71455420       0.00110772       2.72175270       0.00000000
