10
Lattice="16.28999089631971 0.0 0.0 0.0 16.28999089631971 0.0 0.0 0.0 34.433804113860816" Properties=species:S:1:pos:R:3:initial_magmoms:R:1 pbc="T T T"
Si       2.05842069       1.16462097       0.03529467       0.00000000
Si       0.02433726      -1.63986543       1.72107136       0.00000000
Si      -1.55564613       1.81703547      -0.34619766       0.00000000
Si      -0.15765462      -1.63654227      -1.85949533       0.00000000
Si      -2.35480095      -1.67873337       1.90122912       0.00000000
Si      -2.49942357       1.14826581      -2.38919083       0.00000000
Si       3.87418554      -0.28370664       0.24916315       0.00000000
Si      -0.50987700       3.89752911       0.20839350       0.00000000
Si       2.43589257       2.69459406       1.84472322       0.00000000
Si       0.74342673      -0.94574853       3.90148992       0.00000000
