10
Lattice="16.28999089631971 0.0 0.0 0.0 16.28999089631971 0.0 0.0 0.0 34.433804113860816" Properties=species:S:1:pos:R:3:initial_magmoms:R:1 pbc="T T T"
Si       0.84072690      -0.63131895       2.18214025       0.00000000
Si      -1.76340879       1.72998171      -0.01167307       0.00000000
Si      -0.67135977      -2.01748392      -1.40951413       0.00000000
Si       1.51993845       0.73059021      -1.95773503       0.00000000
Si      -0.74885130       0.10932219      -2.50743658       0.00000000
Si      -3.08167704       0.90429048      -1.92192385       0.00000000
Si      -0.72500274       3.77408349      -0.68289158       0.00000000
Si      -1.04427045      -1.69204230       3.41578504       0.00000000
Si       1.35677781      -3.20548104      -1.90384609       0.00000000
Si       1.78497675       1.19946528       3.46218118       0.00000000
