10
Lattice="16.28999089631971 0.0 0.0 0.0 16.28999089631971 0.0 0.0 0.0 34.433804113860816" Properties=species:S:1:pos:R:3:initial_magmoms:R:1 pbc="T T T"
Si      -1.35804781       1.35617508      -1.35755349       0.00000000
Si       1.35901246       1.35597960       1.35789782       0.00000000
Si      -1.35620704      -1.35910728       1.35779452       0.00000000
Si       1.35958261      -1.36024758      -1.36392374       0.00000000
Si      -2.71244728       2.71112841      -0.00013774       0.00000000
Si       0.00175222       2.71358820       2.71472820       0.00000000
Si      -2.71352242      -0.00162900       2.71490037       0.00000000
Si       2.71605579       2.71352304       0.00113632       0.00000000
Si      -2.71420660      -2.71580364       0.00065424       0.00000000
Si       2.71594176      -0.00135207       2.71555461       0.00000000
