10
Lattice="16.28999089631971 0.0 0.0 0.0 16.28999089631971 0.0 0.0 0.0 34.433804113860816" Properties=species:S:1:pos:R:3:initial_magmoms:R:1 pbc="T T T"
Si       0.51728895      -1.16527257      -1.99754053       0.00000000
Si       1.81338651       1.03762806       1.17763676       0.00000000
Si      -1.68195879       1.66774644      -0.51764367       0.00000000
Si      -1.06336233      -0.86118714       2.03720829       0.00000000
Si      -2.77651647       0.67248771       1.42256454       0.00000000
Si       1.94958720      -2.67441075      -0.63860969       0.00000000
Si       0.52662312       2.94745463       1.80791346       0.00000000
Si      -0.43347690       3.65453837      -0.36310467       0.00000000
Si      -2.10913146      -2.94168078       1.48261713       0.00000000
Si       1.62937467       0.39082807      -3.55491349       0.00000000
