10
Lattice="16.28999089631971 0.0 0.0 0.0 16.28999089631971 0.0 0.0 0.0 34.433804113860816" Properties=species:S:1:pos:R:3:initial_magmoms:R:1 pbc="T T T"
Si       1.11899268       1.14088644      -1.72967981       0.00000000
Si      -2.26100313       0.62747451       0.22547268       0.00000000
Si      -0.35577360      -2.30668029       0.40005216       0.00000000
Si       1.36803420       0.60323499       1.84465435       0.00000000
Si      -0.86304420      -1.97068275       2.65718928       0.00000000
Si      -2.50825275      -0.27287379       2.51683702       0.00000000
Si      -3.30872706      -0.86423337      -1.22870212       0.00000000
Si       0.16892730       2.46704787       2.66941329       0.00000000
Si       1.26630315       3.39532863      -0.71494947       0.00000000
Si      -0.57446685       3.58162270       0.72738008       0.00000000
