10
Lattice="16.28999089631971 0.0 0.0 0.0 16.28999089631971 0.0 0.0 0.0 34.433804113860816" Properties=species:S:1:pos:R:3:initial_magmoms:R:1 pbc="T T T"
Si      -1.03840605      -2.04410178       0.67121852       0.00000000
Si       0.80874963       0.46760445      -2.23630466       0.00000000
Si       2.07169704       0.59906475       1.20359986       0.00000000
Si      -2.04893991       1.42550532       0.26582912       0.00000000
Si       0.87974145       1.70636351       3.02475041       0.00000000
Si      -1.86268005      -1.14647391       2.89140044       0.00000000
Si       2.98038582       2.22811592      -0.34712737       0.00000000
Si       1.42561935       2.79036364      -2.03727716       0.00000000
Si       2.53402353      -1.12018185      -2.63470399       0.00000000
Si       0.72500274      -3.77408349       0.68289158       0.00000000
