10
Lattice="16.28999089631971 0.0 0.0 0.0 16.28999089631971 0.0 0.0 0.0 34.433804113860816" Properties=species:S:1:pos:R:3:initial_magmoms:R:1 pbc="T T T"
Si       1.60928910       1.06973498      -1.34026771       0.00000000
Si      -1.28676339       1.90982657       0.63027670       0.00000000
Si      -1.81338651      -1.03762806      -1.17763676       0.00000000
Si       1.31686731      -1.53150828       1.31540649       0.00000000
Si      -2.87674884      -1.89881520       0.85957153       0.00000000
Si       2.30599611       2.74281572       0.20350390       0.00000000
Si       1.94491197      -2.17393701      -2.10428538       0.00000000
Si       0.33435225       3.47439962       1.22567194       0.00000000
Si      -2.24686341       2.61691031      -1.54074143       0.00000000
Si       0.76149234       1.29502568      -3.57540161       0.00000000
