10
Lattice="16.28999089631971 0.0 0.0 0.0 16.28999089631971 0.0 0.0 0.0 34.433804113860816" Properties=species:S:1:pos:R:3:initial_magmoms:R:1 pbc="T T T"
Si       1.92439376       0.35410713       1.29164715       0.00000000
Si       1.07206512      -0.33631194      -2.07563644       0.00000000
Si      -0.95358402      -1.90881889       1.07901829       0.00000000
Si      -1.37290491       1.95729400      -0.13057306       0.00000000
Si       1.89704936       2.65945816       1.02812510       0.00000000
Si      -3.30178752       0.65975966      -0.92489250       0.00000000
Si      -0.37735785       3.04507504       1.79985595       0.00000000
Si      -0.38937987      -3.55135588      -0.50256165       0.00000000
Si       2.90832605      -1.76035183      -1.47683225       0.00000000
Si       1.61161435      -0.66449095       3.42530458       0.00000000
