10
Lattice="16.28999089631971 0.0 0.0 0.0 16.28999089631971 0.0 0.0 0.0 34.433804113860816" Properties=species:S:1:pos:R:3:initial_magmoms:R:1 pbc="T T T"
Si      -0.79234560      -0.92326833       2.02880644       0.00000000
Si       0.04238658       2.37245931       0.23201510       0.00000000
Si      -0.99554706      -1.08778104      -1.93042901       0.00000000
Si       2.27440721      -0.38561688      -0.77173085       0.00000000
Si      -0.37128168       0.77691897      -3.30960693       0.00000000
Si       0.37735785      -3.04507504      -1.79985595       0.00000000
Si      -0.45636435       0.94633497       3.41104898       0.00000000
Si       2.30175161      -2.69096791      -0.50820880       0.00000000
Si       1.96133133       0.31560246      -3.06013388       0.00000000
Si      -1.77378552       3.22972056      -0.93856272       0.00000000
