10
Lattice="16.28999089631971 0.0 0.0 0.0 16.28999089631971 0.0 0.0 0.0 34.433804113860816" Properties=species:S:1:pos:R:3:initial_magmoms:R:1 pbc="T T T"
Si      -1.35799956      -1.35669636      -1.35714028       0.00000000
Si      -1.35731538       1.35747828       1.35710585       0.00000000
Si       1.35768650      -1.35738054       1.35765679       0.00000000
Si       1.35620704       1.35910728      -1.35779452       0.00000000
Si       2.71240947       0.00053757       2.71524471       0.00000000
Si       0.00262269       2.71430496       2.71417726       0.00000000
Si      -2.71397916       0.00151497       2.71503810       0.00000000
Si      -2.71498914      -2.71430007       0.00037877       0.00000000
Si      -2.71485882       2.71507059      -0.00024104       0.00000000
Si       2.71521950       2.71508688       0.00010330       0.00000000
