10
Lattice="16.28999089631971 0.0 0.0 0.0 16.28999089631971 0.0 0.0 0.0 34.433804113860816" Properties=species:S:1:pos:R:3:initial_magmoms:R:1 pbc="T T T"
Si       1.35563162      -1.35619137       1.35321482       0.00000000
Si       1.35533657       1.35839052      -1.35724358       0.00000000
Si      -1.35993807      -1.35682668      -1.35707141       0.00000000
Si      -1.35834165       1.35780408       1.35968838       0.00000000
Si      -0.00226431      -2.70461241       2.70608531       0.00000000
Si       2.70978678      -2.71376739       0.00106745       0.00000000
Si       2.71259681       0.00078192      -2.71407396       0.00000000
Si      -2.71370223      -0.00462636       2.71352302       0.00000000
Si       2.71244694       2.71531494       0.00010330       0.00000000
Si      -0.00262269      -2.71430496      -2.71417726       0.00000000
