10
Lattice="16.28999089631971 0.0 0.0 0.0 16.28999089631971 0.0 0.0 0.0 34.433804113860816" Properties=species:S:1:pos:R:3:initial_magmoms:R:1 pbc="T T T"
Si       1.46865983      -1.26154647      -1.32429041       0.00000000
Si      -1.25320599       1.47118248      -1.33252010       0.00000000
Si       1.74552956       1.06139124       1.16613586       0.00000000
Si      -1.40136354      -1.42789995       1.43103526       0.00000000
Si       0.68167364       2.20514472       2.85721536       0.00000000
Si      -2.60286507       0.11528433      -2.68824859       0.00000000
Si       0.11110820      -2.59871112      -2.69472215       0.00000000
Si      -2.49544881       2.87699319       0.08942464       0.00000000
Si       2.87893889      -2.51532261       0.18807754       0.00000000
Si      -2.73338055      -2.74528854       0.02585980       0.00000000
