10
Lattice="16.28999089631971 0.0 0.0 0.0 16.28999089631971 0.0 0.0 0.0 34.433804113860816" Properties=species:S:1:pos:R:3:initial_magmoms:R:1 pbc="T T T"
Si       0.14765256       2.27082600      -0.35308442       0.00000000
Si      -2.10478203      -0.94517838      -0.44457509       0.00000000
Si       0.57681261      -0.13295898       2.28034552       0.00000000
Si       1.51940088      -0.01993896      -1.86355852       0.00000000
Si      -3.26937042       0.26753067       1.25352891       0.00000000
Si       2.05561881       2.67330303       0.97964227       0.00000000
Si       0.18738387      -1.33732755      -3.26873398       0.00000000
Si      -1.70582364      -3.21686775       0.16269982       0.00000000
Si      -1.98348669       3.02332626       0.49512395       0.00000000
Si       2.82242169       0.83147418       2.28027665       0.00000000
