10
Lattice="16.28999089631971 0.0 0.0 0.0 16.28999089631971 0.0 0.0 0.0 34.433804113860816" Properties=species:S:1:pos:R:3:initial_magmoms:R:1 pbc="T T T"
Si       1.33201701       1.31738859       1.40517546       0.00000000
Si       1.48659282      -1.20184362      -1.36771146       0.00000000
Si      -1.22484510       1.49814243      -1.36027376       0.00000000
Si      -0.83699649      -1.81209960       1.29856835       0.00000000
Si      -0.18738387       1.33732755       3.26873398       0.00000000
Si      -2.29216590       0.39214917       2.82415889       0.00000000
Si       1.11514824      -3.20142483       1.39677361       0.00000000
Si       0.13115079      -2.56969863      -2.71276547       0.00000000
Si      -2.59024032       0.14747337      -2.71644989       0.00000000
Si      -2.66799249      -2.66331726      -0.04720877       0.00000000
