10
Lattice="16.28999089631971 0.0 0.0 0.0 16.28999089631971 0.0 0.0 0.0 34.433804113860816" Properties=species:S:1:pos:R:3:initial_magmoms:R:1 pbc="T T T"
Si       1.89589536       0.67100139      -1.23603652       0.00000000
Si      -0.75789225      -2.02365783      -1.16162503       0.00000000
Si      -1.89130158       1.55305602      -0.18356671       0.00000000
Si       1.24776513       1.07367390       1.87509385       0.00000000
Si       0.55702026       1.96828812      -2.67888259       0.00000000
Si      -2.16817131      -0.76988169      -2.67399299       0.00000000
Si      -0.68088942       3.37929534      -1.25170391       0.00000000
Si       2.87471259       2.50457121       0.12709524       0.00000000
Si      -2.12451085      -3.22300908       0.38221544       0.00000000
Si      -3.63683114       0.49166478      -1.34970257       0.00000000
