10
Lattice="16.28999089631971 0.0 0.0 0.0 16.28999089631971 0.0 0.0 0.0 34.433804113860816" Properties=species:S:1:pos:R:3:initial_magmoms:R:1 pbc="T T T"
Si       0.29857941      -2.22641946       0.64876767       0.00000000
Si      -0.57681261       0.13295898      -2.28034552       0.00000000
Si      -1.63264896       0.86146407       1.50699628       0.00000000
Si       2.24560908       0.96443316      -0.00006887       0.00000000
Si       0.09427023       0.16956261       3.09983608       0.00000000
Si       2.11888917       1.29567402       2.35434380       0.00000000
Si       1.47880620       2.80626201      -1.30070324       0.00000000
Si      -0.42916005       2.40378498      -2.63342994       0.00000000
Si       0.81085104      -2.13299631       2.91764672       0.00000000
Si       2.27022327      -2.95800336      -0.37340038       0.00000000
