10
Lattice="16.28999089631971 0.0 0.0 0.0 16.28999089631971 0.0 0.0 0.0 34.433804113860816" Properties=species:S:1:pos:R:3:initial_magmoms:R:1 pbc="T T T"
Si       0.68592303      -0.15024267      -2.18885485       0.00000000
Si       1.81617210      -0.85726125       1.17057783       0.00000000
Si      -1.47054717       1.83588300       0.26100838       0.00000000
Si      -1.96634961      -1.35363384      -0.25556784       0.00000000
Si       0.94063347      -0.25679556       3.29524803       0.00000000
Si      -3.41544285       0.51956955      -0.04307671       0.00000000
Si       1.40250384      -2.45280159      -2.37104421       0.00000000
Si       1.77378552      -3.22972056       0.93856272       0.00000000
Si      -1.43241228       2.51414973       2.47930415       0.00000000
Si      -1.28044287       0.44440749       3.56820495       0.00000000
