10
Lattice="16.28999089631971 0.0 0.0 0.0 16.28999089631971 0.0 0.0 0.0 34.433804113860816" Properties=species:S:1:pos:R:3:initial_magmoms:R:1 pbc="T T T"
Si       0.37678770      -2.02659003       1.05436367       0.00000000
Si      -2.22107634       0.70120305       0.27295692       0.00000000
Si       0.99269631       1.86140943       1.05636083       0.00000000
Si       0.87553863      -0.60046569      -2.12467020       0.00000000
Si      -0.94063347       0.25679556      -3.29524803       0.00000000
Si       2.72331400      -1.90674450       1.45482904       0.00000000
Si       3.16800168       1.86665481       0.26558808       0.00000000
Si      -2.37304575       2.77094529      -0.81594388       0.00000000
Si      -0.85905315      -1.98430119       3.08268804       0.00000000
Si      -2.40047811       1.31400027       2.60423006       0.00000000
