10
Lattice="16.28999089631971 0.0 0.0 0.0 16.28999089631971 0.0 0.0 0.0 34.433804113860816" Properties=species:S:1:pos:R:3:initial_magmoms:R:1 pbc="T T T"
Si      -0.37678770       2.02659003      -1.05436367       0.00000000
Si      -0.33598125      -1.86960330      -1.38224254       0.00000000
Si      -1.23584085       0.04228884       2.02832436       0.00000000
Si       2.34652630       0.11984553       0.40046537       0.00000000
Si       0.49875093       1.42612434      -3.17903387       0.00000000
Si       1.27198836      -3.27296074      -0.27588379       0.00000000
Si       2.26869268       1.14934095       2.49021967       0.00000000
Si       0.45636435      -0.94633497      -3.41104898       0.00000000
Si       3.10518907      -2.08336068       0.70007406       0.00000000
Si      -2.59786404       2.72779308      -0.78140675       0.00000000
