10
Lattice="16.28999089631971 0.0 0.0 0.0 16.28999089631971 0.0 0.0 0.0 34.433804113860816" Properties=species:S:1:pos:R:3:initial_magmoms:R:1 pbc="T T T"
Si      -1.35731538       1.31093775       1.46761087       0.00000000
Si      -1.82171070      -0.80642016      -1.36212771       0.00000000
Si       1.89450161       0.89257797      -1.21750713       0.00000000
Si       1.33395552      -1.43097876       1.46807229       0.00000000
Si       2.69745363       2.60641629       0.17825357       0.00000000
Si      -2.67687054      -2.65245183      -0.05051098       0.00000000
Si       3.58528958      -0.86986971      -0.96921812       0.00000000
Si      -2.72647359       2.70226665       0.01963072       0.00000000
Si       2.65611775      -2.81098611       0.01477900       0.00000000
Si      -0.00648342       2.64655485       2.84745682       0.00000000
