10
Lattice="16.28999089631971 0.0 0.0 0.0 16.28999089631971 0.0 0.0 0.0 34.433804113860816" Properties=species:S:1:pos:R:3:initial_magmoms:R:1 pbc="T T T"
Si      -1.25206799      -1.95312213       0.51426915       0.00000000
Si       2.43834096      -0.31216527      -0.06735256       0.00000000
Si      -1.27668218       1.96931439       0.88760066       0.00000000
Si       0.33398084      -1.16887266      -2.95535176       0.00000000
Si       1.43891688      -0.24169473       3.44279696       0.00000000
Si      -3.52229126       1.00488123       0.88766953       0.00000000
Si      -3.22371185      -1.22153823       1.53643720       0.00000000
Si       3.25073955       1.85608260       0.50817437       0.00000000
Si       1.43984541       3.34396233       1.13855437       0.00000000
Si      -0.26977706      -3.18467871       2.34711270       0.00000000
