10
Lattice="16.28999089631971 0.0 0.0 0.0 16.28999089631971 0.0 0.0 0.0 34.433804113860816" Properties=species:S:1:pos:R:3:initial_magmoms:R:1 pbc="T T T"
Si       0.94301411      -0.46542159       2.04795164       0.00000000
Si       1.39414285       1.91776861      -0.05406110       0.00000000
Si       1.84742514      -0.12585654      -1.49449680       0.00000000
Si      -1.80871128      -1.53810180       0.28803893       0.00000000
Si       0.48089709      -1.50622227      -2.81000659       0.00000000
Si      -0.51416127      -3.01324275      -1.23090588       0.00000000
Si      -0.33562287       3.24367199       0.76401767       0.00000000
Si      -3.24100953      -0.02896362      -1.07089191       0.00000000
Si       2.78743796       1.06974801       1.66969609       0.00000000
Si      -0.62804466       0.64242873       3.41969187       0.00000000
