10
Lattice="16.28999089631971 0.0 0.0 0.0 16.28999089631971 0.0 0.0 0.0 34.433804113860816" Properties=species:S:1:pos:R:3:initial_magmoms:R:1 pbc="T T T"
Si       1.24784658       1.57024197      -1.18049477       0.00000000
Si      -1.92285531       1.25289648       0.56877789       0.00000000
Si      -0.37747188      -1.52997309      -1.80942855       0.00000000
Si       1.13686281      -0.70377687       2.00583908       0.00000000
Si      -2.94576957       1.20293505      -1.63632972       0.00000000
Si       2.59830780       2.51126707       0.43276429       0.00000000
Si       1.43829297      -2.97830070      -1.59556007       0.00000000
Si       0.57265866       0.93876012       3.58741902       0.00000000
Si      -3.04184799       0.11201004       2.29845771       0.00000000
Si       2.81890535       0.46239165      -2.55223499       0.00000000
