10
Lattice="16.28999089631971 0.0 0.0 0.0 16.28999089631971 0.0 0.0 0.0 34.433804113860816" Properties=species:S:1:pos:R:3:initial_magmoms:R:1 pbc="T T T"
Si       1.00761795      -0.26736777      -2.05885240       0.00000000
Si       1.83184308       0.91217484       1.10953251       0.00000000
Si      -0.92917183      -1.94111640       0.98399712       0.00000000
Si      -1.69078797       1.76244768      -0.24828901       0.00000000
Si       0.47578203       2.16801981       2.48849350       0.00000000
Si      -2.25133406      -0.56110905       2.43729041       0.00000000
Si      -0.99104776       0.74648925      -3.20763361       0.00000000
Si       3.21372378       0.81624303      -1.73837681       0.00000000
Si       2.64652227       2.65742028      -0.25722483       0.00000000
Si      -0.88783595       3.47628600       1.14747170       0.00000000
