10
Lattice="16.28999089631971 0.0 0.0 0.0 16.28999089631971 0.0 0.0 0.0 34.433804113860816" Properties=species:S:1:pos:R:3:initial_magmoms:R:1 pbc="T T T"
Si      -1.35536872       1.35516510      -1.35868980       0.00000000
Si       1.35941679      -1.35866745      -1.35875867       0.00000000
Si       1.37055915       1.35899325       1.35996385       0.00000000
Si      -1.35463242      -1.37917656       1.36485346       0.00000000
Si      -2.70711197       2.71060713       0.00282357       0.00000000
Si       2.71282257       2.71261080       0.00072311       0.00000000
Si      -2.71247910      -0.00175932      -2.71603668       0.00000000
Si      -2.71218405      -2.71634121      -0.00557828       0.00000000
Si       0.00216657       2.71300176      -2.71562348       0.00000000
Si       2.71453302      -2.71666701       0.00234150       0.00000000
