10
Lattice="16.28999089631971 0.0 0.0 0.0 16.28999089631971 0.0 0.0 0.0 34.433804113860816" Properties=species:S:1:pos:R:3:initial_magmoms:R:1 pbc="T T T"
Si      -1.06385592       1.14375348       1.69107950       0.00000000
Si      -1.74552956      -1.06139124      -1.16613586       0.00000000
Si       1.21041216       1.82623932      -1.06813720       0.00000000
Si       1.89130158      -1.55305602       0.18356671       0.00000000
Si      -0.27686973      -2.32293771      -2.49042627       0.00000000
Si       2.44832184       0.41523210      -2.49531588       0.00000000
Si       0.62477037       1.66814487       3.27007690       0.00000000
Si       3.13906671      -0.47938212       2.05866056       0.00000000
Si       1.13340933      -3.57671385      -0.97805832       0.00000000
Si      -2.69450351       2.79968085       0.49670790       0.00000000
