10
Lattice="16.28999089631971 0.0 0.0 0.0 16.28999089631971 0.0 0.0 0.0 34.433804113860816" Properties=species:S:1:pos:R:3:initial_magmoms:R:1 pbc="T T T"
Si      -0.06403599       1.25903781      -1.93449220       0.00000000
Si       2.14938405      -0.70288092       0.47577214       0.00000000
Si      -0.46662705       1.02842028       2.08152462       0.00000000
Si      -1.55908332      -1.76080239      -0.44705433       0.00000000
Si       1.64362842      -1.80577908       2.52138228       0.00000000
Si      -1.99248040       2.46368331      -1.59067047       0.00000000
Si      -2.37061365      -2.13851862       1.74610475       0.00000000
Si      -2.47708998       0.00146610       2.68256701       0.00000000
Si       3.31328826       1.37344248       0.90774445       0.00000000
Si      -0.73050876      -0.18037917      -3.69557566       0.00000000
