10
Lattice="16.28999089631971 0.0 0.0 0.0 16.28999089631971 0.0 0.0 0.0 34.433804113860816" Properties=species:S:1:pos:R:3:initial_magmoms:R:1 pbc="T T T"
Si       0.30142690      -0.59126184       2.22049953       0.00000000
Si       2.01046293       1.02695418      -0.60104239       0.00000000
Si       0.10647633      -2.13998472      -0.93646226       0.00000000
Si      -1.69576361       1.64621853      -0.12175800       0.00000000
Si      -0.19719371       3.36803895       0.67975811       0.00000000
Si      -1.87387847      -0.59650722       3.01127229       0.00000000
Si       2.04610545      -2.96407953       0.16931111       0.00000000
Si       2.47708998      -0.00146610      -2.68256701       0.00000000
Si      -1.99103615      -3.05838234      -0.16975875       0.00000000
Si       0.91800666      -1.76226849      -3.12962134       0.00000000
