10
Lattice="16.28999089631971 0.0 0.0 0.0 16.28999089631971 0.0 0.0 0.0 34.433804113860816" Properties=species:S:1:pos:R:3:initial_magmoms:R:1 pbc="T T T"
Si       0.70361234      -2.09735379       0.77789450       0.00000000
Si      -0.89447250       0.36900108      -2.16781578       0.00000000
Si      -2.00296206       0.26469621       1.29023536       0.00000000
Si       1.78336241       1.60407630       0.54123084       0.00000000
Si      -0.39585189      -3.59029971      -0.62707436       0.00000000
Si      -2.18324349       2.33764758      -1.92216489       0.00000000
Si       0.92947319       0.35691390      -3.63280280       0.00000000
Si      -1.18659455      -0.34705845       3.58149640       0.00000000
Si       0.58269167       3.10933746       2.16692050       0.00000000
Si      -3.18343320       2.13115554       0.28645498       0.00000000
