10
Lattice="16.28999089631971 0.0 0.0 0.0 16.28999089631971 0.0 0.0 0.0 34.433804113860816" Properties=species:S:1:pos:R:3:initial_magmoms:R:1 pbc="T T T"
Si      -0.81636750       0.61175466      -2.29126104       0.00000000
Si       0.97117722      -2.21659659      -0.70038397       0.00000000
Si       1.01048336       2.26502676       0.64322382       0.00000000
Si       0.27143701      -1.20063816       2.25896064       0.00000000
Si       1.18659455       0.34705845      -3.58149640       0.00000000
Si       1.89020689      -1.75029534      -2.80360190       0.00000000
Si       2.72288653       1.48165695       2.23778531       0.00000000
Si       1.07438903       0.51320016       3.65472134       0.00000000
Si      -2.49831000      -1.07965233      -2.74533987       0.00000000
Si       1.76928622       3.45639591      -1.41457590       0.00000000
