10
Lattice="16.28999089631971 0.0 0.0 0.0 16.28999089631971 0.0 0.0 0.0 34.433804113860816" Properties=species:S:1:pos:R:3:initial_magmoms:R:1 pbc="T T T"
Si      -1.29732583       1.37195913      -1.41684853       0.00000000
Si      -1.34320661      -1.49418396       1.30311361       0.00000000
Si       1.42319214      -1.32036966      -1.42339096       0.00000000
Si       1.04410755       1.71125540       1.40090567       0.00000000
Si      -1.79648889       0.54944119       2.74354931       0.00000000
Si       1.58601069      -0.08814519       2.99353887       0.00000000
Si      -2.64729525       0.01953781      -2.78349254       0.00000000
Si      -2.58376700       2.87620217      -0.02128010       0.00000000
Si       0.07208325      -2.70228294      -2.78504207       0.00000000
Si       2.82012480       2.68223714       0.02658291       0.00000000
