10
Lattice="16.28999089631971 0.0 0.0 0.0 16.28999089631971 0.0 0.0 0.0 34.397273925272025" Properties=species:S:1:pos:R:3:initial_magmoms:R:1 pbc="T T T"
Si       1.30419369      -1.37503890      -1.56290981       0.00000000
Si      -0.38747394      -1.64499678       1.83612751       0.00000000
Si      -1.61554446       1.22865696      -1.46370802       0.00000000
Si       0.02322954       2.57727348       1.22547236       0.00000000
Si      -2.63695094      -0.93887415       1.94578608       0.00000000
Si       1.54663776       1.44873486       2.70104744       0.00000000
Si      -3.52130246       0.25936938       0.11901463       0.00000000
Si       0.99228906      -0.72047412       3.47502094       0.00000000
Si       0.02800251       2.17486161      -3.04794415       0.00000000
Si       3.26736675      -2.18677123      -0.57759935       0.00000000
