10
Lattice="16.28999089631971 0.0 0.0 0.0 16.28999089631971 0.0 0.0 0.0 34.397273925272025" Properties=species:S:1:pos:R:3:initial_magmoms:R:1 pbc="T T T"
Si       0.38626848       2.25285391       0.48895752       0.00000000
Si      -1.63710590      -0.58663548       1.68047976       0.00000000
Si       2.14863471      -1.04265774       0.40812388       0.00000000
Si      -1.15403247      -0.40674501      -2.09135542       0.00000000
Si      -1.83649388      -2.85812937       1.25680830       0.00000000
Si       1.69430661      -3.32798184      -0.14543176       0.00000000
Si      -0.29372499       2.61655586       2.68164737       0.00000000
Si      -0.78711651       3.51701819      -1.07171646       0.00000000
Si      -3.33196379       0.52756794      -2.06139538       0.00000000
Si       2.57955408       3.06935270       0.36564323       0.00000000
