10
Lattice="16.28999089631971 0.0 0.0 0.0 16.28999089631971 0.0 0.0 0.0 34.397273925272025" Properties=species:S:1:pos:R:3:initial_magmoms:R:1 pbc="T T T"
Si       1.78375500       1.23782823      -0.82759887       0.00000000
Si       0.84548358      -1.25379243       1.79261493       0.00000000
Si      -0.65410866      -1.30018635      -1.85869213       0.00000000
Si      -1.63453860       1.68549372       0.31607673       0.00000000
Si       1.78114860       2.83776687       0.87262493       0.00000000
Si      -2.74884790      -0.41992362      -2.33853437       0.00000000
Si       2.18323467      -2.86319556       0.64519003       0.00000000
Si      -2.54945993       1.85157027      -1.91486291       0.00000000
Si       1.23628068       1.39554801      -3.18721879       0.00000000
Si      -1.22865696      -3.36593754      -0.95194509       0.00000000
