10
Lattice="16.28999089631971 0.0 0.0 0.0 16.28999089631971 0.0 0.0 0.0 34.397273925272025" Properties=species:S:1:pos:R:3:initial_magmoms:R:1 pbc="T T T"
Si       1.91171458       0.05665662      -1.34641325       0.00000000
Si      -1.57738255      -1.51560531      -0.84355922       0.00000000
Si       0.15500424      -0.68996295       2.27565612       0.00000000
Si      -0.81533635       2.22148426      -0.41252674       0.00000000
Si      -2.86191421      -0.04460202      -2.12224419       0.00000000
Si      -0.73421215       3.11615875       1.81965120       0.00000000
Si       0.99679324       0.22273317      -3.57735288       0.00000000
Si       0.48996573      -3.06427932       2.09362564       0.00000000
Si      -3.12535609       1.90254398      -0.85766211       0.00000000
Si       3.10850830       2.02332130      -0.80001224       0.00000000
