10
Lattice="16.28999089631971 0.0 0.0 0.0 16.28999089631971 0.0 0.0 0.0 34.397273925272025" Properties=species:S:1:pos:R:3:initial_magmoms:R:1 pbc="T T T"
Si       1.10599326       1.56457305      -1.34875226       0.00000000
Si      -1.26047133       1.40506137       1.39333115       0.00000000
Si      -1.72056609      -1.16123265      -1.25890653       0.00000000
Si       1.82684205      -1.66654845       0.36980530       0.00000000
Si      -1.37655387      -3.01951603       1.17862325       0.00000000
Si       2.35757025       0.13763421      -2.70029070       0.00000000
Si      -0.56454624      -1.77075558       3.22319835       0.00000000
Si      -0.37493064      -2.56643900      -2.69251692       0.00000000
Si      -0.92973546       0.63338778       3.62251653       0.00000000
Si       2.07782208       3.23532432       0.01998483       0.00000000
