10
Lattice="16.28999089631971 0.0 0.0 0.0 16.28999089631971 0.0 0.0 0.0 34.397273925272025" Properties=species:S:1:pos:R:3:initial_magmoms:R:1 pbc="T T T"
Si      -1.33566597      -1.43280813       1.32332376       0.00000000
Si       1.78825104      -0.79667874      -1.41018583       0.00000000
Si       1.36772469       1.40470299       1.43507712       0.00000000
Si       2.60012835      -2.58698297       0.04812181       0.00000000
Si       2.61682560       2.62738152      -0.21611819       0.00000000
Si       0.74516976      -0.98137476      -3.54457226       0.00000000
Si      -2.22769008      -3.16758140      -0.07777228       0.00000000
Si      -0.00477297      -2.67660080       2.82642011       0.00000000
Si      -2.71083519       0.02044395       2.80602940       0.00000000
Si       2.71609686       0.03186324       2.81605277       0.00000000
