10
Lattice="16.28999089631971 0.0 0.0 0.0 16.28999089631971 0.0 0.0 0.0 34.397273925272025" Properties=species:S:1:pos:R:3:initial_magmoms:R:1 pbc="T T T"
Si      -1.88722908      -0.91587267      -1.01060898       0.00000000
Si       1.23882192      -1.48716297       1.35891666       0.00000000
Si      -1.47369114       1.23585714       1.39578712       0.00000000
Si       0.84207897       1.60502112      -1.61772331       0.00000000
Si       2.63867049       2.59011000      -0.09940818       0.00000000
Si      -0.85727754       3.35420874      -1.32219353       0.00000000
Si      -2.71894598       2.52700254      -0.07704994       0.00000000
Si       2.58115050      -0.11090232       2.73750514       0.00000000
Si      -0.13826952       2.60697015       2.74080728       0.00000000
Si      -1.75443300      -0.65614491      -3.34181884       0.00000000
