10
Lattice="16.28999089631971 0.0 0.0 0.0 16.28999089631971 0.0 0.0 0.0 34.397273925272025" Properties=species:S:1:pos:R:3:initial_magmoms:R:1 pbc="T T T"
Si      -1.35769005       1.35650088       1.35638846       0.00000000
Si       1.35692442      -1.35778779       1.35687002       0.00000000
Si       1.35681039       1.35795069      -1.35693882       0.00000000
Si      -1.35852084      -1.35676152      -1.35831471       0.00000000
Si      -2.71564074       0.00089595       2.71105706       0.00000000
Si      -0.00032580      -2.71451673       2.71353366       0.00000000
Si       2.71371852       0.00149868       2.71453118       0.00000000
Si       2.71171485       0.00228060      -2.71690460       0.00000000
Si       0.00135207       2.71355562       2.71604466       0.00000000
Si       2.71471221       2.71495656      -0.00020638       0.00000000
