10
Lattice="16.28999089631971 0.0 0.0 0.0 16.28999089631971 0.0 0.0 0.0 34.397273925272025" Properties=species:S:1:pos:R:3:initial_magmoms:R:1 pbc="T T T"
Si       1.26047133      -1.40506137      -1.39333115       0.00000000
Si       0.24685866       2.31153471       0.31717744       0.00000000
Si       0.33073587      -0.77167359       2.22918538       0.00000000
Si      -1.81698660       1.23808887      -1.41679011       0.00000000
Si      -2.23917453       2.31189309       0.62314136       0.00000000
Si       2.36646459       0.15951168      -2.74208342       0.00000000
Si      -1.83681153      -0.78907131       3.06393889       0.00000000
Si      -0.46009476      -2.56629402      -2.65223769       0.00000000
Si       0.69592509      -3.17581695       1.82986720       0.00000000
Si      -3.36021975       0.33946731       1.58836381       0.00000000
