10
Lattice="16.28999089631971 0.0 0.0 0.0 16.28999089631971 0.0 0.0 0.0 34.397273925272025" Properties=species:S:1:pos:R:3:initial_magmoms:R:1 pbc="T T T"
Si      -0.24685866      -2.31153471      -0.31717744       0.00000000
Si       1.17845118       1.07012268      -1.93316227       0.00000000
Si      -2.48603319       0.00035838       0.30596392       0.00000000
Si      -2.06384526      -1.07344584      -1.73396755       0.00000000
Si      -0.77038668       0.41977701      -3.05750659       0.00000000
Si      -0.06302601       3.28217436       0.74143365       0.00000000
Si       3.09143475      -0.48127176      -1.69052377       0.00000000
Si       0.08387721      -3.08320830       1.91200794       0.00000000
Si       0.89800254       0.48084822       3.48895184       0.00000000
Si       1.47851298      -1.80224415       3.41795583       0.00000000
