10
Lattice="16.28999089631971 0.0 0.0 0.0 16.28999089631971 0.0 0.0 0.0 34.397273925272025" Properties=species:S:1:pos:R:3:initial_magmoms:R:1 pbc="T T T"
Si       0.08340480       0.90943812       2.14597832       0.00000000
Si      -0.69758667      -2.26233891       0.11612526       0.00000000
Si       2.08034703       0.21603798      -1.12183332       0.00000000
Si      -1.25032266       1.42359939      -1.46632221       0.00000000
Si      -2.33735436       0.74243304       2.54113443       0.00000000
Si       2.66085747      -2.06705439      -1.19282933       0.00000000
Si      -0.45186831       3.64617441      -0.55042548       0.00000000
Si       0.45335070      -3.39301152       1.80988237       0.00000000
Si      -0.90132570      -3.36541626      -1.86402371       0.00000000
Si       1.63879029       2.84649831       2.29378349       0.00000000
