10
Lattice="16.28999089631971 0.0 0.0 0.0 16.28999089631971 0.0 0.0 0.0 34.397273925272025" Properties=species:S:1:pos:R:3:initial_magmoms:R:1 pbc="T T T"
Si      -0.96905952       1.18809486       1.75068463       0.00000000
Si       2.24407782      -0.52569459       0.33726546       0.00000000
Si      -1.26403884      -1.94105124      -0.30245540       0.00000000
Si      -0.45768384       1.44135549      -1.82924805       0.00000000
Si      -2.87844300       1.27435041      -1.43409195       0.00000000
Si      -0.08773794      -2.86109415      -2.16534400       0.00000000
Si       2.03019012      -2.59535538       1.42772845       0.00000000
Si      -3.25715292      -1.06007175      -1.13634898       0.00000000
Si      -2.75084343       2.28271770       0.68835863       0.00000000
Si       0.66104820       2.78545968       2.28549375       0.00000000
