10
Lattice="16.28999089631971 0.0 0.0 0.0 16.28999089631971 0.0 0.0 0.0 34.397273925272025" Properties=species:S:1:pos:R:3:initial_magmoms:R:1 pbc="T T T"
Si      -1.33278264      -1.36749663      -1.38242721       0.00000000
Si       1.32201495      -1.43345484       1.33716037       0.00000000
Si       1.36950030       1.36244673      -1.37558215       0.00000000
Si      -1.91976021       0.81612900       1.27094558       0.00000000
Si      -2.70243769       2.70255987      -0.00364611       0.00000000
Si      -2.68765126      -2.72352510      -0.02559159       0.00000000
Si      -2.69756861      -0.00123804      -2.73465360       0.00000000
Si       2.72648988       2.71223613       0.00626031       0.00000000
Si       0.01585017       2.71445157      -2.73637346       0.00000000
Si       0.01599678      -2.71511946      -2.74043235       0.00000000
