10
Lattice="16.28999089631971 0.0 0.0 0.0 16.28999089631971 0.0 0.0 0.0 34.397273925272025" Properties=species:S:1:pos:R:3:initial_magmoms:R:1 pbc="T T T"
Si      -1.83793554       1.38046347      -0.41902783       0.00000000
Si       0.97010208       0.27396522       2.14133469       0.00000000
Si       1.80372654       0.66930723      -1.53439445       0.00000000
Si      -1.55538549      -1.93706019      -0.14780517       0.00000000
Si      -2.09065860       0.79967610      -2.84420898       0.00000000
Si       2.24800371      -1.39937616      -2.58430303       0.00000000
Si      -3.27399678       0.97005321       1.46305447       0.00000000
Si       1.33841898       2.60467326       2.58034734       0.00000000
Si      -1.38360744       3.66578757       0.13452781       0.00000000
Si      -1.09770165      -3.37841568       1.68144288       0.00000000
