10
Lattice="16.28999089631971 0.0 0.0 0.0 16.28999089631971 0.0 0.0 0.0 34.397273925272025" Properties=species:S:1:pos:R:3:initial_magmoms:R:1 pbc="T T T"
Si       0.67999347      -0.36370194      -2.19268985       0.00000000
Si       1.25550288       1.88952597       0.50639695       0.00000000
Si      -2.34910108       0.16434981       0.28439682       0.00000000
Si       0.76833414      -1.40260321       1.77617303       0.00000000
Si       0.47311047       2.11305735       2.67841403       0.00000000
Si       3.42239868       1.13741667      -0.05507007       0.00000000
Si      -0.42845958      -3.36926789       1.22977202       0.00000000
Si      -1.34338091      -3.20319134      -1.00116761       0.00000000
Si       2.87327907       0.45279684      -2.31600414       0.00000000
Si       0.29372499      -2.61655586      -2.68164737       0.00000000
