10
Lattice="16.28999089631971 0.0 0.0 0.0 16.28999089631971 0.0 0.0 0.0 34.397273925272025" Properties=species:S:1:pos:R:3:initial_magmoms:R:1 pbc="T T T"
Si      -0.17500347      -1.08307323       2.03033463       0.00000000
Si      -1.92321369       0.74668473      -1.13332201       0.00000000
Si       0.45069543       2.22285195       0.79058739       0.00000000
Si       1.12511772      -1.31592249      -1.68402268       0.00000000
Si       1.72377522       0.66057579      -2.78790061       0.00000000
Si       1.08155826       1.39400046       2.86247394       0.00000000
Si      -0.51645816       1.61360595      -2.95892395       0.00000000
Si       0.36940833      -3.32873118       1.79681140       0.00000000
Si      -1.59495390       3.11055921       1.50783974       0.00000000
Si       2.91170718       2.21601015      -1.37379349       0.00000000
