10
Lattice="16.28999089631971 0.0 0.0 0.0 16.28999089631971 0.0 0.0 0.0 34.397273925272025" Properties=species:S:1:pos:R:3:initial_magmoms:R:1 pbc="T T T"
Si       1.29472920       1.80097353       0.91317934       0.00000000
Si       1.29497355      -1.36459701      -1.53356892       0.00000000
Si      -1.40955741       1.34638479      -1.52290576       0.00000000
Si      -0.57884886      -1.01843451       2.27369547       0.00000000
Si       0.14617017       1.19752677       3.00216135       0.00000000
Si       2.59849935       0.86234373       2.70039390       0.00000000
Si       2.60053560      -2.85505056      -0.19547982       0.00000000
Si      -2.72600118       2.77144802      -0.03900653       0.00000000
Si       2.43533871      -1.52893053       2.66682214       0.00000000
Si       2.65613337      -0.00632052      -2.91823195       0.00000000
