10
Lattice="16.28999089631971 0.0 0.0 0.0 16.28999089631971 0.0 0.0 0.0 34.397273925272025" Properties=species:S:1:pos:R:3:initial_magmoms:R:1 pbc="T T T"
Si       0.57264237      -0.40840659      -2.17081317       0.00000000
Si      -2.33238591       0.29067876       0.02287420       0.00000000
Si       0.45753723       2.13182899       1.04024294       0.00000000
Si       0.93618630      -2.21296392       0.51826402       0.00000000
Si       0.72441630       2.01788044      -2.85002212       0.00000000
Si       1.53642393       3.26664089      -0.80544702       0.00000000
Si       2.80877067      -1.66430043       1.95916663       0.00000000
Si      -3.14247132      -0.12298950       2.22148038       0.00000000
Si      -3.32856828      -0.94731237      -1.77631062       0.00000000
Si      -0.15237666      -2.62436787      -2.89927904       0.00000000
