10
Lattice="16.28999089631971 0.0 0.0 0.0 16.28999089631971 0.0 0.0 0.0 34.397273925272025" Properties=species:S:1:pos:R:3:initial_magmoms:R:1 pbc="T T T"
Si       0.00260640      -1.59993864      -1.70022380       0.00000000
Si       1.45808532       1.77135409      -0.47437307       0.00000000
Si      -2.21889348       0.81439153      -0.01014720       0.00000000
Si       0.54638289      -0.96052356       2.22935736       0.00000000
Si      -1.78114860      -2.83776687      -0.87262493       0.00000000
Si      -3.41568720      -1.15227315      -0.55654820       0.00000000
Si       2.17715850      -2.50333317      -1.61402419       0.00000000
Si       1.41499827       3.03854831       1.65327150       0.00000000
Si      -2.37726486       2.18566907       1.93784030       0.00000000
Si       0.43517106       3.35441141      -1.84139029       0.00000000
