10
Lattice="16.28999089631971 0.0 0.0 0.0 16.28999089631971 0.0 0.0 0.0 34.397273925272025" Properties=species:S:1:pos:R:3:initial_magmoms:R:1 pbc="T T T"
Si       1.34441370       1.36339155       1.36853071       0.00000000
Si      -1.37396376      -1.34810664       1.37049135       0.00000000
Si      -1.34837217       1.37283975      -1.38097565       0.00000000
Si       1.37331216      -1.36594745      -1.44980119       0.00000000
Si      -0.11596851      -2.61884621      -2.76793096       0.00000000
Si       2.69948106      -2.70245157       0.00133118       0.00000000
Si      -2.72086983      -2.70846404       0.01036734       0.00000000
Si       2.70032814       0.00693954       2.72928762       0.00000000
Si       2.69817786       2.73201219      -0.01915585       0.00000000
Si      -0.01368360      -2.70524072       2.72959720       0.00000000
