10
Lattice="16.28999089631971 0.0 0.0 0.0 16.28999089631971 0.0 0.0 0.0 34.397273925272025" Properties=species:S:1:pos:R:3:initial_magmoms:R:1 pbc="T T T"
Si      -1.27783647       1.36754550       1.51589215       0.00000000
Si       1.41959205      -1.32124932       1.48598370       0.00000000
Si       1.42006446       1.53354060      -1.36532973       0.00000000
Si      -1.37785707      -1.45774323      -1.52703141       0.00000000
Si      -2.62695798      -2.68042176       0.12416391       0.00000000
Si      -2.51019126       2.79898038       0.15319178       0.00000000
Si       2.77402410      -2.69922042       0.03136689       0.00000000
Si      -2.65360842       0.02955006       2.87501175       0.00000000
Si      -2.74087395      -0.06364503      -2.81775544       0.00000000
Si       0.06582789      -2.68986996       2.87367026       0.00000000
