10
Lattice="16.28999089631971 0.0 0.0 0.0 16.28999089631971 0.0 0.0 0.0 34.397273925272025" Properties=species:S:1:pos:R:3:initial_magmoms:R:1 pbc="T T T"
Si      -1.35757602       1.35464382       1.35422143       0.00000000
Si       1.35879777       1.35589815      -1.35735158       0.00000000
Si      -1.35679410      -1.35928647      -1.35766116       0.00000000
Si       1.35957969      -1.36405944       1.36137607       0.00000000
Si       0.01558953       2.69578323       2.69791729       0.00000000
Si      -2.71236645       2.71205694       0.00151348       0.00000000
Si      -2.71156824      -0.01102833       2.71329288       0.00000000
Si       0.00099369       2.71345788      -2.71473757       0.00000000
Si      -2.71371852      -0.00149868      -2.71453118       0.00000000
Si      -2.71404432      -2.71601541      -0.00099752       0.00000000
