10
Lattice="16.28999089631971 0.0 0.0 0.0 16.28999089631971 0.0 0.0 0.0 34.397273925272025" Properties=species:S:1:pos:R:3:initial_magmoms:R:1 pbc="T T T"
Si       0.45144477      -1.73763801      -1.55138672       0.00000000
Si       1.72170639      -0.54379278       1.56473287       0.00000000
Si      -2.10864276       0.73954971       0.85291528       0.00000000
Si       1.62564426       0.06136443      -2.59283356       0.00000000
Si      -2.91729465       1.54452006      -1.36519417       0.00000000
Si       3.14595738       1.46952090       1.17363564       0.00000000
Si       3.12965109      -2.26417968       0.49005824       0.00000000
Si      -1.25589384       2.57183262      -2.67690054       0.00000000
Si       3.60450459       1.09705005      -1.16125262       0.00000000
Si      -2.25061011      -0.13028742       3.27166414       0.00000000
