10
Lattice="16.28999089631971 0.0 0.0 0.0 16.28999089631971 0.0 0.0 0.0 34.397273925272025" Properties=species:S:1:pos:R:3:initial_magmoms:R:1 pbc="T T T"
Si       1.25157699      -1.42693884      -1.35153844       0.00000000
Si      -1.10599326      -1.56457305       1.34875226       0.00000000
Si       0.97182882       1.67075127       1.36873709       0.00000000
Si      -1.47821976       1.27970982      -1.35907145       0.00000000
Si      -0.94115475       3.22214571       1.12609858       0.00000000
Si      -2.36646459      -0.15951168       2.74208342       0.00000000
Si       0.72084879      -3.23112150       1.71855756       0.00000000
Si       2.59292817      -0.07332129      -2.71098826       0.00000000
Si       2.52512919      -2.78309763       0.13308313       0.00000000
Si       2.63322963       2.69806383       0.05703071       0.00000000
