10
Lattice="16.28999089631971 0.0 0.0 0.0 16.28999089631971 0.0 0.0 0.0 34.397273925272025" Properties=species:S:1:pos:R:3:initial_magmoms:R:1 pbc="T T T"
Si      -1.22352561       1.32644583      -1.53370651       0.00000000
Si       1.33809318      -1.05595038      -1.64993496       0.00000000
Si       1.02560211       1.62004050       1.41187129       0.00000000
Si      -1.11097800      -1.80344961       1.12950392       0.00000000
Si       0.63056961       3.66070509       0.24611263       0.00000000
Si      -1.66780278       3.39512922      -0.48379793       0.00000000
Si      -3.02997258       0.09536166      -2.36502029       0.00000000
Si       2.94785469      -2.40947019      -0.53835204       0.00000000
Si      -0.16985583      -2.54156580      -2.90763759       0.00000000
Si      -0.26119386       2.04675705       3.36295456       0.00000000
