10
Lattice="16.28999089631971 0.0 0.0 0.0 16.28999089631971 0.0 0.0 0.0 34.397273925272025" Properties=species:S:1:pos:R:3:initial_magmoms:R:1 pbc="T T T"
Si       1.36301688      -1.39409820       1.29072403       0.00000000
Si      -1.08646155       1.46430810       1.57450170       0.00000000
Si       2.09399805       0.60769845      -1.19719779       0.00000000
Si      -0.95127084      -0.60336531      -2.33980707       0.00000000
Si      -1.49568264       1.64229264      -2.10628385       0.00000000
Si       1.30113117      -0.70239222      -2.99359642       0.00000000
Si      -2.14166259       2.75659380      -0.20256566       0.00000000
Si       1.77315021       2.91525840      -1.69554577       0.00000000
Si       2.22376419      -3.10487400      -0.14543176       0.00000000
Si      -2.56479534       0.07623720       2.85454678       0.00000000
