10
Lattice="16.28999089631971 0.0 0.0 0.0 16.28999089631971 0.0 0.0 0.0 34.397273925272025" Properties=species:S:1:pos:R:3:initial_magmoms:R:1 pbc="T T T"
Si       1.35568638       1.35874890       1.37831674       0.00000000
Si      -1.35729909      -1.35682668       1.38161888       0.00000000
Si       1.49985288      -1.29984426      -1.34195536       0.00000000
Si      -1.42042284       1.38522015      -1.43463198       0.00000000
Si      -2.70040959      -2.71534752       0.00014103       0.00000000
Si      -2.72292237       2.71578735       0.01424736       0.00000000
Si       0.18270864      -2.69816157      -2.73840088       0.00000000
Si       2.71827972       2.73023658       0.01666893       0.00000000
Si      -2.71205694       0.00140094       2.73979600       0.00000000
Si       0.00153126      -2.71360449       2.73983039       0.00000000
