10
Lattice="16.28999089631971 0.0 0.0 0.0 16.28999089631971 0.0 0.0 0.0 34.397273925272025" Properties=species:S:1:pos:R:3:initial_magmoms:R:1 pbc="T T T"
Si       1.35490446      -1.35567009      -1.35996578       0.00000000
Si       1.35790182       1.35700587       1.35673243       0.00000000
Si      -1.35681039      -1.35795069       1.35693882       0.00000000
Si      -1.35883035       1.35677781      -1.35821152       0.00000000
Si      -2.71450044      -0.00144981       2.71332728       0.00000000
Si      -2.71358820       2.71500543      -0.00003440       0.00000000
Si       0.00011403      -2.71573848       2.71380884       0.00000000
Si       0.00065160       2.71471221       2.71490955       0.00000000
Si       2.71570590      -0.00055386       2.71411842       0.00000000
Si       2.71578735       2.71410948      -0.00103192       0.00000000
