10
Lattice="16.28999089631971 0.0 0.0 0.0 16.28999089631971 0.0 0.0 0.0 34.397273925272025" Properties=species:S:1:pos:R:3:initial_magmoms:R:1 pbc="T T T"
Si       1.35749457       1.35736425       1.35759237       0.00000000
Si      -1.35788553      -1.35710361       1.35776435       0.00000000
Si       1.35990549      -1.35840681      -1.35728279       0.00000000
Si      -1.36163223       1.35824391      -1.36048174       0.00000000
Si       2.71461447      -2.71308321       0.00044716       0.00000000
Si       2.71458189       0.00161271       2.71459998       0.00000000
Si      -0.00008145      -2.71466334       2.71515033       0.00000000
Si      -2.71578735      -2.71410948       0.00103192       0.00000000
Si      -2.71437012       2.71661814       0.00041277       0.00000000
Si      -2.71513575       0.00060273       2.71594147       0.00000000
