10
Lattice="16.28999089631971 0.0 0.0 0.0 16.28999089631971 0.0 0.0 0.0 34.397273925272025" Properties=species:S:1:pos:R:3:initial_magmoms:R:1 pbc="T T T"
Si       1.35578412       1.35809730      -1.35597569       0.00000000
Si      -1.35923760      -1.35723393      -1.35570051       0.00000000
Si       1.35681039      -1.35944937       1.35759237       0.00000000
Si      -1.36068741       1.35663120       1.35941542       0.00000000
Si       2.71340901      -2.71293660       0.00079114       0.00000000
Si       2.71339272      -0.00047241      -2.71404962       0.00000000
Si      -0.00198738      -2.71494027      -2.71387763       0.00000000
Si       2.71287144       2.71609686      -0.00096312       0.00000000
Si      -0.00234576       2.71520091      -2.71408402       0.00000000
Si      -2.71660185      -0.00003258      -2.71401522       0.00000000
