10
Lattice="16.28999089631971 0.0 0.0 0.0 16.28999089631971 0.0 0.0 0.0 34.397273925272025" Properties=species:S:1:pos:R:3:initial_magmoms:R:1 pbc="T T T"
Si      -0.59865750      -1.97649828       1.10387793       0.00000000
Si       1.28679597      -0.42671655      -1.95108326       0.00000000
Si       1.18793196       1.55543436       1.41410712       0.00000000
Si      -2.24023338       0.95303016      -0.17102334       0.00000000
Si      -1.72377522      -0.66057579       2.78790061       0.00000000
Si       0.89176347       1.61394804      -3.11684192       0.00000000
Si      -1.87191648       3.28373820       0.26798931       0.00000000
Si       2.48907942       2.88507303      -0.09655320       0.00000000
Si      -2.06395929      -3.22504533      -0.29364969       0.00000000
Si      -0.34971372       3.16809549       2.15430247       0.00000000
