10
Lattice="16.28999089631971 0.0 0.0 0.0 16.28999089631971 0.0 0.0 0.0 34.397273925272025" Properties=species:S:1:pos:R:3:initial_magmoms:R:1 pbc="T T T"
Si      -1.35351981       1.35255012       1.35914024       0.00000000
Si       1.35741312       1.35606951      -1.35566612       0.00000000
Si      -1.35708732      -1.35799956      -1.35501257       0.00000000
Si       1.35798327      -1.35488817       1.35869308       0.00000000
Si       0.00000000       2.71449948      -2.71301770       0.00000000
Si      -2.71399545       2.71370942       0.00343973       0.00000000
Si       2.71538010      -0.00066789      -2.71277692       0.00000000
Si      -2.71521720      -0.00089595      -2.71312089       0.00000000
Si      -2.71287144      -2.71609686       0.00096312       0.00000000
Si       0.00052128      -2.71656927      -2.71308650       0.00000000
