10
Lattice="16.28999089631971 0.0 0.0 0.0 16.28999089631971 0.0 0.0 0.0 34.397273925272025" Properties=species:S:1:pos:R:3:initial_magmoms:R:1 pbc="T T T"
Si       0.26164998      -1.56906909       1.74463071       0.00000000
Si      -1.40214546      -1.33071381      -1.37080093       0.00000000
Si      -0.49777353       2.33348453      -0.03972887       0.00000000
Si       2.30518161      -0.28463517      -0.57395323       0.00000000
Si       0.65375028      -2.54327625      -2.01716046       0.00000000
Si       0.25969518      -3.59833068       0.29997879       0.00000000
Si       2.41522056      -0.99931005       2.61966345       0.00000000
Si       3.30123366       0.82465911       1.46615022       0.00000000
Si      -0.49930479       2.78372384      -2.55706038       0.00000000
Si       2.64003885      -2.77161318      -0.33991405       0.00000000
