10
Lattice="16.28999089631971 0.0 0.0 0.0 16.28999089631971 0.0 0.0 0.0 34.397273925272025" Properties=species:S:1:pos:R:3:initial_magmoms:R:1 pbc="T T T"
Si       0.91996146      -1.29929040       1.80874726       0.00000000
Si      -0.95345370      -1.45867176      -1.68777198       0.00000000
Si       1.83562236       1.63661038      -0.08210634       0.00000000
Si      -1.98697275       0.96037695       1.12262446       0.00000000
Si       0.39327318       3.48095213      -0.27686381       0.00000000
Si      -1.87681977      -3.06449109      -0.26358646       0.00000000
Si      -1.51547499       3.27442751       1.04471459       0.00000000
Si       1.74177567       0.17342334       3.42810303       0.00000000
Si       3.13510824       1.23562908       1.87265743       0.00000000
Si       0.58419198      -3.07133289      -2.42796733       0.00000000
