10
Lattice="16.28999089631971 0.0 0.0 0.0 16.28999089631971 0.0 0.0 0.0 34.397273925272025" Properties=species:S:1:pos:R:3:initial_magmoms:R:1 pbc="T T T"
Si      -0.47946357      -1.72367748      -1.50632626       0.00000000
Si       1.30259727      -1.43583318       1.39778141       0.00000000
Si       1.68645483       0.87037470      -1.50587910       0.00000000
Si      -1.70891874       1.30349322       1.38877507       0.00000000
Si       2.50826904       2.34308844       0.11347667       0.00000000
Si      -0.15174135       2.42308863       2.70601583       0.00000000
Si       2.97773055      -2.30899347      -0.08743792       0.00000000
Si       1.53280755      -2.92778541      -1.92772750       0.00000000
Si      -1.11032640      -0.89482599      -3.57821282       0.00000000
Si       2.67372657      -0.21857922       2.78768188       0.00000000
