10
Lattice="16.28999089631971 0.0 0.0 0.0 16.28999089631971 0.0 0.0 0.0 34.397273925272025" Properties=species:S:1:pos:R:3:initial_magmoms:R:1 pbc="T T T"
Si      -1.48928067      -1.25289876      -1.31812977       0.00000000
Si       1.32616890      -1.33650412       1.45113236       0.00000000
Si      -1.37331216       1.36594745       1.44980119       0.00000000
Si       1.17533979       1.39095260      -1.64793101       0.00000000
Si      -2.30115798       0.53740547      -2.77643741       0.00000000
Si      -0.08698860      -2.74829472      -2.52743540       0.00000000
Si       2.77184124      -2.59976250       0.05220477       0.00000000
Si      -0.61183611       2.25068993      -3.01852556       0.00000000
Si       2.67929775       2.71998854      -0.02397147       0.00000000
Si      -2.74699899      -2.66829453       0.06510376       0.00000000
