10
Lattice="16.28999089631971 0.0 0.0 0.0 16.28999089631971 0.0 0.0 0.0 34.397273925272025" Properties=species:S:1:pos:R:3:initial_magmoms:R:1 pbc="T T T"
Si       1.35714934       1.35782037       1.35659484       0.00000000
Si      -1.35822165      -1.35760860       1.35697321       0.00000000
Si      -1.35721167       1.35685926      -1.36130727       0.00000000
Si       1.35943157      -1.35839052      -1.36034415       0.00000000
Si       2.71402489      -2.71420722       0.00041277       0.00000000
Si       2.71527922       0.00024435       2.71360246       0.00000000
Si      -0.00094826      -2.71425609       2.71477196       0.00000000
Si      -0.00099586       2.71505430       2.71425601       0.00000000
Si      -2.71547187       0.00035838       2.71422161       0.00000000
Si      -2.71586283      -2.71585251      -0.00024078       0.00000000
