10
Lattice="16.28999089631971 0.0 0.0 0.0 16.28999089631971 0.0 0.0 0.0 34.397273925272025" Properties=species:S:1:pos:R:3:initial_magmoms:R:1 pbc="T T T"
Si      -0.88601310      -1.82396916       1.15351323       0.00000000
Si       2.34595548      -0.22516478      -0.29096670       0.00000000
Si      -0.76163895       1.94748253       1.17270692       0.00000000
Si      -0.99605205      -1.10929428      -2.04010346       0.00000000
Si      -0.51981390      -1.25978130       3.37509680       0.00000000
Si       0.38437884      -3.61968102       0.37644398       0.00000000
Si      -3.30123366      -0.82465911      -1.46615022       0.00000000
Si      -0.99562851       1.09332127       3.46287869       0.00000000
Si       3.24123759      -0.60045984       1.88706990       0.00000000
Si      -3.03958368      -2.39372820       0.27848049       0.00000000
