10
Lattice="16.28999089631971 0.0 0.0 0.0 16.28999089631971 0.0 0.0 0.0 34.397273925272025" Properties=species:S:1:pos:R:3:initial_magmoms:R:1 pbc="T T T"
Si       1.03578336       2.07915900      -0.40004052       0.00000000
Si      -2.34595548       0.22516478       0.29096670       0.00000000
Si       0.89528211      -0.37529507       2.17803660       0.00000000
Si       0.47234484      -1.87221575      -1.46910839       0.00000000
Si       0.33210423      -3.50088995       0.21164654       0.00000000
Si       3.28526036       1.37303637      -0.50969909       0.00000000
Si       0.50412663       3.34876902       1.51661105       0.00000000
Si       1.21964291       1.77963477       3.13816825       0.00000000
Si      -3.34200753      -0.88412951      -1.74913675       0.00000000
Si      -3.23196858      -1.59880439       1.44447993       0.00000000
