10
Lattice="16.28999089631971 0.0 0.0 0.0 16.28999089631971 0.0 0.0 0.0 34.397273925272025" Properties=species:S:1:pos:R:3:initial_magmoms:R:1 pbc="T T T"
Si       1.35658233       1.35663120      -1.35676683       0.00000000
Si      -1.35757602       1.35145098       1.36216721       0.00000000
Si       1.35309627      -1.35513252       1.36409345       0.00000000
Si      -1.35889551      -1.35840681      -1.35659484       0.00000000
Si      -2.69892720      -0.00216657       2.72161703       0.00000000
Si       2.71383255      -0.00133578      -2.71401522       0.00000000
Si      -0.00128691       2.71420722      -2.71429040       0.00000000
Si       2.71560816       2.71308321       0.00130710       0.00000000
Si      -0.00130320      -2.71548598      -2.71404962       0.00000000
Si      -2.71608057      -0.00140094      -2.71408402       0.00000000
