10
Lattice="16.28999089631971 0.0 0.0 0.0 16.28999089631971 0.0 0.0 0.0 34.397273925272025" Properties=species:S:1:pos:R:3:initial_magmoms:R:1 pbc="T T T"
Si       1.34029233      -1.29687948       1.38641730       0.00000000
Si       1.35277779       1.33594290      -1.36498778       0.00000000
Si      -1.36150191      -1.37632581      -1.35724839       0.00000000
Si      -1.15033464       1.59117462       1.49291132       0.00000000
Si      -0.59409630      -1.88792955       2.65746607       0.00000000
Si      -2.32453413      -0.20782782       2.53435816       0.00000000
Si       2.25943019       0.23491809       2.99308046       0.00000000
Si      -2.70205488       2.70104490       0.02019121       0.00000000
Si       2.72522970       2.68530876      -0.00918408       0.00000000
Si       0.00100998       2.69188992      -2.72003475       0.00000000
