10
Lattice="16.28999089631971 0.0 0.0 0.0 16.28999089631971 0.0 0.0 0.0 34.397273925272025" Properties=species:S:1:pos:R:3:initial_magmoms:R:1 pbc="T T T"
Si      -0.53199882      -0.95161293       2.07109542       0.00000000
Si       0.43592040      -1.48128228      -1.79571069       0.00000000
Si      -1.60976151       1.35351981      -1.11158293       0.00000000
Si       2.13431580       0.72720189       0.77428307       0.00000000
Si       1.88113662       3.03906240       0.66620677       0.00000000
Si       3.52927152      -0.03749958      -0.99050445       0.00000000
Si       2.61524547      -2.19462138      -1.40746844       0.00000000
Si      -0.99647559      -3.37074309      -1.46040588       0.00000000
Si      -2.94785469       2.40947019       0.53835204       0.00000000
Si      -3.11771052      -0.13209561      -2.36928555       0.00000000
