10
Lattice="16.28999089631971 0.0 0.0 0.0 16.28999089631971 0.0 0.0 0.0 34.397273925272025" Properties=species:S:1:pos:R:3:initial_magmoms:R:1 pbc="T T T"
Si       0.58864471      -2.25214137      -0.23225052       0.00000000
Si       1.18250154       0.44152416       1.97433583       0.00000000
Si      -2.26800783      -0.03622896       0.67408375       0.00000000
Si       0.24519319       1.78491159      -1.58815742       0.00000000
Si       0.05224203       3.46833648       0.08833225       0.00000000
Si      -0.68802444      -2.71871792      -2.14824855       0.00000000
Si       1.26287803       2.75201631       2.05159215       0.00000000
Si      -0.19774431      -0.41607918       3.67332133       0.00000000
Si      -2.26007460       0.41187636       2.95400514       0.00000000
Si      -3.34621035       1.71422928      -0.46604892       0.00000000
