10
Lattice="16.28999089631971 0.0 0.0 0.0 16.28999089631971 0.0 0.0 0.0 34.397273925272025" Properties=species:S:1:pos:R:3:initial_magmoms:R:1 pbc="T T T"
Si      -2.10282723      -0.91261467      -0.50385155       0.00000000
Si       0.52751322      -0.70416783       2.18333379       0.00000000
Si       1.40984641      -0.91517220      -1.67342831       0.00000000
Si       0.11927538       2.18336499      -0.95614156       0.00000000
Si       2.53085417       0.50279085       2.35635217       0.00000000
Si       0.89074113      -2.97618300       1.80981358       0.00000000
Si       0.19921041      -0.19885203      -3.63668822       0.00000000
Si       0.94889317       1.97698698      -3.21786677       0.00000000
Si       1.32946992      -3.22566435      -1.75068463       0.00000000
Si       1.23450574       3.71610738       0.42814311       0.00000000
