10
Lattice="16.28999089631971 0.0 0.0 0.0 16.28999089631971 0.0 0.0 0.0 34.397273925272025" Properties=species:S:1:pos:R:3:initial_magmoms:R:1 pbc="T T T"
Si      -1.25621964       1.46805480      -1.31103907       0.00000000
Si       1.35068535       1.36091547       1.36114217       0.00000000
Si      -1.36223496      -1.35184194       1.36351558       0.00000000
Si       1.41103980      -1.30368870      -1.44339297       0.00000000
Si       2.54358576       0.55809540      -2.59024585       0.00000000
Si      -2.62734894       0.25080084      -2.70093954       0.00000000
Si      -0.00752598      -2.70651834       2.72124554       0.00000000
Si       2.70834369       0.00821016       2.72176149       0.00000000
Si      -2.70725139      -2.72521926       0.00274490       0.00000000
Si       2.72274730      -2.71300176      -0.02307714       0.00000000
