10
Lattice="16.28999089631971 0.0 0.0 0.0 16.28999089631971 0.0 0.0 0.0 34.397273925272025" Properties=species:S:1:pos:R:3:initial_magmoms:R:1 pbc="T T T"
Si      -1.35708732       1.35575154      -1.35700761       0.00000000
Si      -1.35707103      -1.35671265       1.35783315       0.00000000
Si       1.35721764       1.35677781       1.35793634       0.00000000
Si       1.35728280      -1.35822762      -1.35697321       0.00000000
Si       2.70861975       0.00737937       2.71542551       0.00000000
Si       2.71446456       2.71314837       0.00006879       0.00000000
Si      -2.71366965      -0.00322542       2.71463438       0.00000000
Si       0.00003258      -2.71469592      -2.71415281       0.00000000
Si      -2.71469592       2.71432125       0.00106632       0.00000000
Si      -2.71458189      -0.00161271      -2.71459998       0.00000000
