10
Lattice="16.28999089631971 0.0 0.0 0.0 16.28999089631971 0.0 0.0 0.0 34.397273925272025" Properties=species:S:1:pos:R:3:initial_magmoms:R:1 pbc="T T T"
Si      -1.35725022      -1.35646830      -1.35717960       0.00000000
Si      -1.35728280       1.35822762       1.35697321       0.00000000
Si       1.35747014      -1.35812988       1.35735158       0.00000000
Si       1.35861945       1.35826020      -1.35666364       0.00000000
Si      -2.71195920      -0.00179190      -2.71490955       0.00000000
Si       0.00096111       2.71096551      -2.71728297       0.00000000
Si      -2.71437012       2.71397916      -0.00003440       0.00000000
Si      -2.71435383       0.00151497       2.71480636       0.00000000
Si       2.71531561       2.71438641      -0.00010319       0.00000000
Si      -0.00006516       2.71500543       2.71490955       0.00000000
