10
Lattice="16.28999089631971 0.0 0.0 0.0 16.28999089631971 0.0 0.0 0.0 34.397273925272025" Properties=species:S:1:pos:R:3:initial_magmoms:R:1 pbc="T T T"
Si      -1.36099692      -1.35267273      -1.37369030       0.00000000
Si       1.34931699       1.37124333      -1.37633889       0.00000000
Si      -1.23395121       1.41470505       1.49150103       0.00000000
Si       1.70153841      -1.09143000       1.32646282       0.00000000
Si       0.52548282       2.30790204       2.95317960       0.00000000
Si       3.49211078       0.82233549       1.27404134       0.00000000
Si      -2.70306486      -2.70158247       0.00687946       0.00000000
Si      -2.69320941       2.71557558      -0.00577875       0.00000000
Si       2.70943329       2.70876636      -0.00055036       0.00000000
Si       2.72421972      -2.71731861      -0.02249583       0.00000000
