10
Lattice="16.28999089631971 0.0 0.0 0.0 16.28999089631971 0.0 0.0 0.0 34.397273925272025" Properties=species:S:1:pos:R:3:initial_magmoms:R:1 pbc="T T T"
Si       1.11523036       1.53274239       1.38428467       0.00000000
Si      -1.90088010       1.38932523      -0.11595328       0.00000000
Si      -0.11927538      -2.18336499       0.95614156       0.00000000
Si       0.82961779      -0.20637801      -2.26172522       0.00000000
Si       1.29057103      -3.09853719      -0.71728675       0.00000000
Si      -0.95211792       3.08141640      -1.55290020       0.00000000
Si       0.07993503      -2.38221702      -2.68054666       0.00000000
Si      -0.14206509       1.67835870      -3.22409268       0.00000000
Si       3.38938604       1.09597491       0.99483851       0.00000000
Si      -2.22210261      -3.09597966       0.45229001       0.00000000
