10
Lattice="16.28999089631971 0.0 0.0 0.0 16.28999089631971 0.0 0.0 0.0 34.397273925272025" Properties=species:S:1:pos:R:3:initial_magmoms:R:1 pbc="T T T"
Si      -0.91913786      -1.53179757      -1.60666317       0.00000000
Si       1.64354697       0.94620465      -1.58423613       0.00000000
Si       1.61554446      -1.22865696       1.46370802       0.00000000
Si      -1.90575800      -0.96928758       1.58272265       0.00000000
Si      -1.43090450       2.39194215      -0.06858820       0.00000000
Si       1.63877400       1.34861652       2.68918038       0.00000000
Si      -2.85352649      -2.12284764      -0.33561439       0.00000000
Si      -2.25943019      -0.23491809      -2.99308046       0.00000000
Si       0.46579952       2.45039067      -3.00226454       0.00000000
Si       3.18200715       2.24723808      -0.31597353       0.00000000
