10
Lattice="16.28999089631971 0.0 0.0 0.0 16.28999089631971 0.0 0.0 0.0 34.397273925272025" Properties=species:S:1:pos:R:3:initial_magmoms:R:1 pbc="T T T"
Si      -1.17774745       1.50418602      -1.41802841       0.00000000
Si       1.53846018       1.30103343       1.26826260       0.00000000
Si       1.52137197      -1.20321198      -1.40433829       0.00000000
Si      -1.64354697      -0.94620465       1.58423613       0.00000000
Si      -2.56268483      -2.47800222      -0.02242704       0.00000000
Si      -3.07445147       1.44573750       1.51564793       0.00000000
Si      -0.02800251      -2.17486161       3.04794415       0.00000000
Si      -2.55019937       0.15482016      -2.77383212       0.00000000
Si       0.17044227      -2.56126041      -2.77066757       0.00000000
Si      -2.20042876       3.13007463      -0.06906976       0.00000000
