10
Lattice="16.28999089631971 0.0 0.0 0.0 16.28999089631971 0.0 0.0 0.0 34.397273925272025" Properties=species:S:1:pos:R:3:initial_magmoms:R:1 pbc="T T T"
Si       0.42218793      -1.07380422      -2.03993147       0.00000000
Si      -1.12104522      -1.97242578       0.96522244       0.00000000
Si       2.48603319      -0.00035838      -0.30596392       0.00000000
Si       2.23917453      -2.31189309      -0.62314136       0.00000000
Si       0.05336604       1.68805125       2.83849903       0.00000000
Si      -2.88967495      -0.63496791       2.18642954       0.00000000
Si       1.71564651       0.41941863      -3.36347052       0.00000000
Si       0.40236300      -3.10096440       2.44079752       0.00000000
Si      -2.42320429       2.91486744      -1.29767228       0.00000000
Si       2.42300718       3.28181598       0.43546973       0.00000000
