10
Lattice="16.28999089631971 0.0 0.0 0.0 16.28999089631971 0.0 0.0 0.0 34.397273925272025" Properties=species:S:1:pos:R:3:initial_magmoms:R:1 pbc="T T T"
Si       0.12696426       1.41978753       1.88091278       0.00000000
Si       1.07225667       1.07175168      -1.83182785       0.00000000
Si       1.19395926      -1.95929604       0.74219039       0.00000000
Si      -2.36181705      -0.53440974      -0.28766456       0.00000000
Si      -0.21383883      -3.58985988      -0.17749003       0.00000000
Si      -0.70952724       2.16637452      -2.89415385       0.00000000
Si      -2.44219354      -2.84490189      -0.36492088       0.00000000
Si      -0.26300205       3.66010236       1.42446070       0.00000000
Si       2.70236439       2.66911650      -1.29701873       0.00000000
Si      -3.77166347       0.38076246       1.38576375       0.00000000
