10
Lattice="16.28999089631971 0.0 0.0 0.0 16.28999089631971 0.0 0.0 0.0 34.397273925272025" Properties=species:S:1:pos:R:3:initial_magmoms:R:1 pbc="T T T"
Si      -1.87150501      -0.76906719       1.22694598       0.00000000
Si       0.07640824       0.07402176      -2.39952077       0.00000000
Si       1.81289292      -1.56323727       0.32116963       0.00000000
Si       0.98117602       1.87963794       1.25472868       0.00000000
Si       1.94568900      -1.30350951      -2.01004022       0.00000000
Si      -0.28681966       2.34603693      -2.02600057       0.00000000
Si      -0.53231827      -2.11445829       2.71103439       0.00000000
Si       2.22643086       0.58849254       2.72756573       0.00000000
Si       0.75961899      -3.45313302       1.29194311       0.00000000
Si       2.84284446       2.70684414       0.00958509       0.00000000
