10
Lattice="16.28999089631971 0.0 0.0 0.0 16.28999089631971 0.0 0.0 0.0 34.397273925272025" Properties=species:S:1:pos:R:3:initial_magmoms:R:1 pbc="T T T"
Si      -1.35276212       1.35720135       1.36189203       0.00000000
Si       1.36404152      -1.35803214       1.36089451       0.00000000
Si      -1.33835851      -1.36401057      -1.38294661       0.00000000
Si       1.36767419       1.34944731      -1.37886021       0.00000000
Si      -2.71042047       2.70990666       0.00127270       0.00000000
Si      -2.71012725      -2.71738377       0.00034397       0.00000000
Si      -2.71138158      -0.00105885       2.71855567       0.00000000
Si       2.71686086      -2.71432125       0.00399009       0.00000000
Si       0.00393403       2.71332756       2.71845247       0.00000000
Si       0.00423377      -2.71642266       2.71824609       0.00000000
