10
Lattice="16.28999089631971 0.0 0.0 0.0 16.28999089631971 0.0 0.0 0.0 34.397273925272025" Properties=species:S:1:pos:R:3:initial_magmoms:R:1 pbc="T T T"
Si      -0.39448516       0.21466962       2.35992949       0.00000000
Si      -1.99888956       1.19461086      -0.80833639       0.00000000
Si       2.47471001       0.05751999      -0.27535033       0.00000000
Si      -0.46833098      -2.26549917      -0.92741982       0.00000000
Si       1.27311074       2.36206629      -0.63225665       0.00000000
Si      -0.87289476       2.50437573       2.47282140       0.00000000
Si      -2.62564731      -0.61581087       2.56201359       0.00000000
Si      -0.19538226       3.68758359       0.61939206       0.00000000
Si      -3.71080566       0.24992118       0.61990802       0.00000000
Si      -0.97751240      -3.69237285       0.90530236       0.00000000
