10
Lattice="16.28999089631971 0.0 0.0 0.0 16.28999089631971 0.0 0.0 0.0 34.397273925272025" Properties=species:S:1:pos:R:3:initial_magmoms:R:1 pbc="T T T"
Si      -0.47840961       2.28970611       0.11289192       0.00000000
Si      -2.23116215      -0.83048049       0.20208410       0.00000000
Si       1.78216347      -0.83831598       1.37217682       0.00000000
Si       0.39448516      -0.21466962      -2.35992949       0.00000000
Si      -1.60440440       0.97994124      -3.16826588       0.00000000
Si      -1.97798297      -3.14234100       0.31016039       0.00000000
Si      -3.31632050       0.03525156      -1.74002147       0.00000000
Si       0.38957209       3.11606523       2.10803811       0.00000000
Si       1.40345355      -3.17273814       1.66991979       0.00000000
Si       0.19910290       3.47291397      -1.74053743       0.00000000
