10
Lattice="16.28999089631971 0.0 0.0 0.0 16.28999089631971 0.0 0.0 0.0 34.397273925272025" Properties=species:S:1:pos:R:3:initial_magmoms:R:1 pbc="T T T"
Si      -0.97168288       1.88473671      -0.96236747       0.00000000
Si      -0.74968276      -2.17583901      -0.41882144       0.00000000
Si       2.11324306      -0.19137492      -1.06205082       0.00000000
Si      -0.82961779       0.20637801       2.26172522       0.00000000
Si       0.46095324      -2.89215918       1.54443846       0.00000000
Si      -3.04574197      -1.87015716      -0.72481976       0.00000000
Si       0.59305211       2.75463900      -2.44864011       0.00000000
Si      -1.78173571       3.28779441       0.70882502       0.00000000
Si      -2.73049789       1.59570324       2.14577194       0.00000000
Si       2.68779136       1.87437627      -1.96879787       0.00000000
