10
Lattice="16.28999089631971 0.0 0.0 0.0 16.28999089631971 0.0 0.0 0.0 34.397273925272025" Properties=species:S:1:pos:R:3:initial_magmoms:R:1 pbc="T T T"
Si      -1.35724692      -1.35637056       1.35786754       0.00000000
Si      -1.35669306       1.35850455      -1.35676683       0.00000000
Si       1.35813385      -1.35698958      -1.35714520       0.00000000
Si       1.35696260       1.35842310       1.35797074       0.00000000
Si      -0.00584481      -2.70576900       2.71535672       0.00000000
Si       0.00143769      -2.71311579      -2.71370565       0.00000000
Si      -2.71446456      -2.71314837      -0.00006879       0.00000000
Si       2.71423399       0.00058644      -2.71439359       0.00000000
Si      -2.71342200       0.00180819      -2.71528792       0.00000000
Si      -2.71408989       0.00428427       2.71470317       0.00000000
