10
Lattice="16.28999089631971 0.0 0.0 0.0 16.28999089631971 0.0 0.0 0.0 34.397273925272025" Properties=species:S:1:pos:R:3:initial_magmoms:R:1 pbc="T T T"
Si       1.35840600      -1.35485559      -1.36079131       0.00000000
Si      -1.35441887       1.36022544      -1.36055053       0.00000000
Si       1.36284013       1.35679477       1.38198005       0.00000000
Si      -1.34923865      -1.35224919       1.40017621       0.00000000
Si      -2.71264649      -2.70899442      -0.00405888       0.00000000
Si      -2.71321664       0.00196326      -2.71841808       0.00000000
Si       0.00144340      -2.71327869      -2.71876205       0.00000000
Si       2.72058068      -2.71494027       0.00106632       0.00000000
Si       2.71869104       2.71693484      -0.00220143       0.00000000
Si       0.00177938       2.71789595      -2.71793652       0.00000000
