10
Lattice="16.28999089631971 0.0 0.0 0.0 16.28999089631971 0.0 0.0 0.0 34.397273925272025" Properties=species:S:1:pos:R:3:initial_magmoms:R:1 pbc="T T T"
Si      -1.36011630      -1.33752303      -1.37578853       0.00000000
Si       1.36486580       1.36658439      -1.37131689       0.00000000
Si      -1.28363522       1.32714630       1.52383448       0.00000000
Si       0.78267749      -1.88643087       1.27459170       0.00000000
Si      -2.18395047      -0.40086432       2.95372996       0.00000000
Si      -0.11439815      -1.64056590       3.40660472       0.00000000
Si       2.70243769      -2.70255987       0.00364611       0.00000000
Si      -2.70943329      -2.70876636       0.00055036       0.00000000
Si      -2.70495354       2.72927547       0.02779301       0.00000000
Si       0.00486908      -2.70379791      -2.73100749       0.00000000
