10
Lattice="16.28999089631971 0.0 0.0 0.0 16.28999089631971 0.0 0.0 0.0 34.397273925272025" Properties=species:S:1:pos:R:3:initial_magmoms:R:1 pbc="T T T"
Si       1.10596182       1.60015041       1.32997134       0.00000000
Si       1.28363522      -1.32714630      -1.52383448       0.00000000
Si      -0.90031525      -1.72801062       1.42989548       0.00000000
Si      -1.42131832       1.40212917      -1.49604147       0.00000000
Si       1.16923707      -2.96771220       1.88277024       0.00000000
Si      -2.65974928      -2.62120761      -0.03178310       0.00000000
Si       2.06631271      -3.21357717      -0.24924279       0.00000000
Si       1.66254877       0.70574796       3.41630476       0.00000000
Si       2.69158807       2.81857499      -0.01936568       0.00000000
Si       2.64850102       0.03943809      -2.89515137       0.00000000
