10
Lattice="16.28999089631971 0.0 0.0 0.0 16.28999089631971 0.0 0.0 0.0 34.383488856416385" Properties=species:S:1:pos:R:3:initial_magmoms:R:1 pbc="T T T"
Si       0.08321747      -1.88072937      -1.40044028       0.00000000
Si      -2.32740510       0.27204300      -0.15984893       0.00000000
Si       0.58901219      -0.42440337       2.23623460       0.00000000
Si       1.77328379       1.23606891      -0.94207374       0.00000000
Si       3.45025784      -0.46498176      -0.71029451       0.00000000
Si       2.28031004      -2.62923858      -0.93557525       0.00000000
Si      -2.60521476       0.66310074      -2.45515439       0.00000000
Si      -3.22407186      -1.82208537       0.59277168       0.00000000
Si      -1.79685609      -3.22318827      -0.83500349       0.00000000
Si       1.93131308       3.34684144       0.17508082       0.00000000
