10
Lattice="16.28999089631971 0.0 0.0 0.0 16.28999089631971 0.0 0.0 0.0 34.383488856416385" Properties=species:S:1:pos:R:3:initial_magmoms:R:1 pbc="T T T"
Si       0.45934542       2.26451267       0.02754119       0.00000000
Si       1.56862926      -0.96075162      -1.43128229       0.00000000
Si      -2.10538476      -0.38520963      -1.01685787       0.00000000
Si       1.24553340      -0.29885634       2.00372957       0.00000000
Si       3.42717165       0.39748482      -1.03882893       0.00000000
Si       0.69858036      -0.49370103      -3.56440075       0.00000000
Si       2.88298791       2.32126703       0.25375029       0.00000000
Si      -1.59606162      -0.20786040      -3.34651246       0.00000000
Si      -1.07479791       3.17505851       1.61774405       0.00000000
Si      -0.06089202      -1.67510070       3.32736226       0.00000000
