10
Lattice="16.28999089631971 0.0 0.0 0.0 16.28999089631971 0.0 0.0 0.0 34.383488856416385" Properties=species:S:1:pos:R:3:initial_magmoms:R:1 pbc="T T T"
Si       1.35597960      -1.35653346       1.35948953       0.00000000
Si       1.35501849       1.34614044      -1.37553631       0.00000000
Si      -1.36041048       1.35757602       1.35914569       0.00000000
Si      -1.36298430      -1.35856971      -1.37310883       0.00000000
Si       2.71313208      -2.71250817      -0.00391972       0.00000000
Si       2.71886616       2.70964602      -0.00333520       0.00000000
Si      -2.71749780      -2.71246256      -0.00216616       0.00000000
Si       2.71339272       0.00055386       2.71664097       0.00000000
Si      -0.00136836       2.71451673       2.71667536       0.00000000
Si      -0.00174303      -2.71475456       2.71691604       0.00000000
