10
Lattice="16.28999089631971 0.0 0.0 0.0 16.28999089631971 0.0 0.0 0.0 34.383488856416385" Properties=species:S:1:pos:R:3:initial_magmoms:R:1 pbc="T T T"
Si       1.34392500       1.34152223      -1.38771839       0.00000000
Si      -1.36787130      -1.37381079      -1.38128867       0.00000000
Si       1.52459739      -1.15962483       1.43499571       0.00000000
Si      -1.35560493       1.29374366       1.53769925       0.00000000
Si      -0.38716443      -2.04929733       2.73940286       0.00000000
Si       2.70003492       2.70009194      -0.03177036       0.00000000
Si      -2.71767699       2.68987811       0.00006877       0.00000000
Si       2.69855253      -2.72829711      -0.01127779       0.00000000
Si      -0.00710244       2.70191642      -2.74545435       0.00000000
Si       2.70648576      -0.01336920      -2.74346011       0.00000000
