10
Lattice="16.28999089631971 0.0 0.0 0.0 16.28999089631971 0.0 0.0 0.0 34.383488856416385" Properties=species:S:1:pos:R:3:initial_magmoms:R:1 pbc="T T T"
Si       0.77040297      -0.22678938       2.27952343       0.00000000
Si      -2.26466838      -0.46745784      -0.72198490       0.00000000
Si      -0.21830229       2.54343915      -0.18553341       0.00000000
Si       1.48629960      -1.47716254      -1.47818140       0.00000000
Si       1.10627019       2.69560404      -2.09268345       0.00000000
Si      -1.90711917      -0.23452713      -3.02990911       0.00000000
Si       1.94339700       1.79198145       2.74290997       0.00000000
Si      -3.50560800       1.45922562      -0.37873434       0.00000000
Si      -1.06293879       0.25498737       3.69189480       0.00000000
Si       3.15416754       1.73271843      -1.42003888       0.00000000
