10
Lattice="16.28999089631971 0.0 0.0 0.0 16.28999089631971 0.0 0.0 0.0 34.383488856416385" Properties=species:S:1:pos:R:3:initial_magmoms:R:1 pbc="T T T"
Si      -1.83334176       0.48177675       1.41237136       0.00000000
Si       1.17299403       2.01877083       0.46338654       0.00000000
Si      -0.77040297       0.22678938      -2.27952343       0.00000000
Si       1.70805537      -1.64451297       0.65466199       0.00000000
Si      -1.21932279      -0.60025718       3.38897609       0.00000000
Si       2.59133175       2.25017028      -1.39332290       0.00000000
Si       3.56364927      -0.25868520       1.20170361       0.00000000
Si      -0.98870526       2.77022853      -2.46505684       0.00000000
Si       2.81973384       1.73175732       2.12854545       0.00000000
Si      -1.83700701       2.81303865       2.17427552       0.00000000
