10
Lattice="16.28999089631971 0.0 0.0 0.0 16.28999089631971 0.0 0.0 0.0 34.383488856416385" Properties=species:S:1:pos:R:3:initial_magmoms:R:1 pbc="T T T"
Si      -1.35501849      -1.34614044       1.37553631       0.00000000
Si       1.36384767       1.36350558       1.37220111       0.00000000
Si       1.25571465      -1.39755168      -1.48177447       0.00000000
Si      -1.25169102       1.42464195      -1.46212774       0.00000000
Si       1.19117367      -0.02083491      -3.50243277       0.00000000
Si       0.39977289       2.25189702      -3.03794596       0.00000000
Si       2.72367171      -2.68332138      -0.00611339       0.00000000
Si      -2.71800279      -2.70471015       0.00242748       0.00000000
Si       0.00096111      -2.70267390       2.73502583       0.00000000
Si      -2.70501966       2.73483036      -0.01227835       0.00000000
