10
Lattice="16.28999089631971 0.0 0.0 0.0 16.28999089631971 0.0 0.0 0.0 34.383488856416385" Properties=species:S:1:pos:R:3:initial_magmoms:R:1 pbc="T T T"
Si      -1.30452926      -1.89369295       0.30749171       0.00000000
Si       1.77530864       0.28641078      -1.52036996       0.00000000
Si      -1.34176983       1.48724442       1.30399454       0.00000000
Si       2.36619580      -0.74290545       1.68341656       0.00000000
Si      -0.00782409       1.15859367      -2.96000744       0.00000000
Si       2.70592376       2.33101755      -0.29115955       0.00000000
Si      -3.07835292      -1.66744440      -1.38214826       0.00000000
Si      -0.65145502       3.65023062       0.75248307       0.00000000
Si      -0.76444897       3.34264284      -1.78512297       0.00000000
Si      -0.18033845      -3.95241731       0.57520171       0.00000000
