10
Lattice="16.28999089631971 0.0 0.0 0.0 16.28999089631971 0.0 0.0 0.0 34.383488856416385" Properties=species:S:1:pos:R:3:initial_magmoms:R:1 pbc="T T T"
Si       0.99947295      -1.83731652      -1.09102309       0.00000000
Si      -1.60958232       0.99289179      -1.42921928       0.00000000
Si      -1.46036592      -0.84100383       1.71810951       0.00000000
Si       1.84207320       1.61720604       0.17387740       0.00000000
Si       1.70851149      -2.84167647       1.23099836       0.00000000
Si      -0.21657555       2.17815219      -2.84767652       0.00000000
Si       2.47018302      -0.69555042      -2.61146182       0.00000000
Si       1.06649001       3.34384830      -1.28343321       0.00000000
Si      -2.39098104      -2.88561060       0.48889910       0.00000000
Si      -0.02402775      -2.30343858       3.06229838       0.00000000
