10
Lattice="16.28999089631971 0.0 0.0 0.0 16.28999089631971 0.0 0.0 0.0 34.383488856416385" Properties=species:S:1:pos:R:3:initial_magmoms:R:1 pbc="T T T"
Si       1.39300677       1.18526040      -1.41845724       0.00000000
Si      -1.82301390       0.98671788       1.13486207       0.00000000
Si       1.60958232      -0.99289179       1.42921928       0.00000000
Si      -1.33866333      -1.61316612      -1.17062092       0.00000000
Si       2.67607233       2.35095651       0.14578607       0.00000000
Si      -0.08032599       2.44942956      -2.64354163       0.00000000
Si       0.14921640      -1.83389562       3.14732879       0.00000000
Si      -0.80314587       2.62910826       2.53770920       0.00000000
Si       2.67786423      -0.31249107      -2.63037275       0.00000000
Si       0.71182413       3.62778300       0.79938218       0.00000000
