10
Lattice="16.28999089631971 0.0 0.0 0.0 16.28999089631971 0.0 0.0 0.0 34.383488856416385" Properties=species:S:1:pos:R:3:initial_magmoms:R:1 pbc="T T T"
Si      -2.29594518      -0.21263337      -0.42945002       0.00000000
Si       0.39644973       2.17956942       0.77558879       0.00000000
Si       1.41032304      -1.70821827       0.77957728       0.00000000
Si       2.02147497      -0.61255287      -1.31902014       0.00000000
Si      -2.85482250       1.47170376       1.17522831       0.00000000
Si       3.33150048       1.21039587      -0.46768448       0.00000000
Si      -1.60655238       3.23631801       0.14461703       0.00000000
Si      -2.92921893      -2.48583771      -0.20874228       0.00000000
Si       2.14760844       3.19619574      -0.34644823       0.00000000
Si      -2.76811083       0.60867585      -2.66331215       0.00000000
