10
Lattice="16.28999089631971 0.0 0.0 0.0 16.28999089631971 0.0 0.0 0.0 34.383488856416385" Properties=species:S:1:pos:R:3:initial_magmoms:R:1 pbc="T T T"
Si       0.16379595       0.19710900      -2.33237089       0.00000000
Si      -1.25410194      -1.86758334       0.73419105       0.00000000
Si      -0.84914883       1.94010642       1.08301174       0.00000000
Si       2.31435288      -0.48951450       0.57998101       0.00000000
Si      -1.23522183      -1.25382501       3.04211526       0.00000000
Si      -0.68685156       1.10447829       3.28902323       0.00000000
Si       2.11015773       1.67420475      -2.40041585       0.00000000
Si       2.72163546      -2.08627659      -1.18007638       0.00000000
Si       1.12726800      -1.81685628      -2.98527932       0.00000000
Si       3.37624911       1.42548903      -0.35439082       0.00000000
