10
Lattice="16.28999089631971 0.0 0.0 0.0 16.28999089631971 0.0 0.0 0.0 34.383488856416385" Properties=species:S:1:pos:R:3:initial_magmoms:R:1 pbc="T T T"
Si      -1.49213142       1.84549410      -0.04060692       0.00000000
Si       2.19985047       0.78019326       0.53029684       0.00000000
Si      -0.09677889      -0.40364991      -2.37772273       0.00000000
Si       1.98848772      -2.81334816      -0.66198568       0.00000000
Si      -3.42588963       0.61983450       0.55395270       0.00000000
Si      -2.89795842      -1.39921326       1.75149590       0.00000000
Si       3.41741394      -1.25884233       0.44767328       0.00000000
Si       1.58291559      -2.03105349      -2.82405505       0.00000000
Si       2.21873058       1.39395159       2.83822106       0.00000000
Si       0.00868257       1.09908630       3.72029557       0.00000000
