10
Lattice="16.28999089631971 0.0 0.0 0.0 16.28999089631971 0.0 0.0 0.0 34.383488856416385" Properties=species:S:1:pos:R:3:initial_magmoms:R:1 pbc="T T T"
Si      -2.25481293       0.50557644      -0.47414858       0.00000000
Si       0.16229727      -0.83562813       2.20601149       0.00000000
Si       0.84914883      -1.94010642      -1.08301174       0.00000000
Si       1.25490015       2.04915168      -0.03273310       0.00000000
Si      -2.68525989       2.29091157       0.98828517       0.00000000
Si      -0.38607300      -3.19393143       1.95910352       0.00000000
Si      -0.40495311      -3.80768976      -0.34882069       0.00000000
Si       3.59614782       1.38085443      -0.03954103       0.00000000
Si       2.23575363      -0.10459809       3.21668033       0.00000000
Si       1.01294478      -1.74299742      -3.41538262       0.00000000
