10
Lattice="16.28999089631971 0.0 0.0 0.0 16.28999089631971 0.0 0.0 0.0 34.383488856416385" Properties=species:S:1:pos:R:3:initial_magmoms:R:1 pbc="T T T"
Si       1.47137796       1.01797839       1.52082524       0.00000000
Si       1.53414333      -0.91054584      -1.59020286       0.00000000
Si      -1.16654645       1.68541227      -1.34387941       0.00000000
Si      -1.32554662      -1.62229015       1.31016092       0.00000000
Si       2.76718230       2.44294614      -0.02221175       0.00000000
Si       1.07479791      -3.17505851      -1.61774405       0.00000000
Si       0.00338832       2.27677185       2.97743442       0.00000000
Si       0.79120530       3.33234756      -1.52260489       0.00000000
Si      -3.25009025      -1.92739859      -0.29043749       0.00000000
Si      -2.14773550       0.45313893      -3.18707613       0.00000000
