10
Lattice="16.28999089631971 0.0 0.0 0.0 16.28999089631971 0.0 0.0 0.0 34.383488856416385" Properties=species:S:1:pos:R:3:initial_magmoms:R:1 pbc="T T T"
Si       0.10197540      -1.28596748       1.95855339       0.00000000
Si       0.94900653      -1.34444858      -1.70239625       0.00000000
Si       1.85559390       1.38582777       0.54704161       0.00000000
Si      -1.70805537       1.64451297      -0.65466199       0.00000000
Si      -0.69282999       0.57714330       3.31687387       0.00000000
Si       2.27346498       0.31172544      -2.74861764       0.00000000
Si       2.41357527       2.27229699      -1.48299509       0.00000000
Si       2.44322307      -1.95426473       1.95174545       0.00000000
Si      -0.53506134       3.66328380      -0.19127546       0.00000000
Si       1.11167847       3.37627029       1.47388346       0.00000000
