10
Lattice="16.28999089631971 0.0 0.0 0.0 16.28999089631971 0.0 0.0 0.0 34.383488856416385" Properties=species:S:1:pos:R:3:initial_magmoms:R:1 pbc="T T T"
Si       0.55798137       0.88646922      -2.03003670       0.00000000
Si      -0.74391543       1.99044252       0.92684184       0.00000000
Si       1.66620636      -1.27890184       1.00836514       0.00000000
Si      -1.85559390      -1.38582777      -0.54704161       0.00000000
Si      -2.39065524       2.27745603      -0.73831707       0.00000000
Si       0.41787108      -1.07410233      -3.29565925       0.00000000
Si      -1.75361850      -2.67179525       1.41151177       0.00000000
Si      -1.54971657       1.30958568       2.96602456       0.00000000
Si       2.53338822       2.04936345      -1.64270648       0.00000000
Si      -0.90658737      -2.73027635      -2.24943787       0.00000000
