10
Lattice="16.28999089631971 0.0 0.0 0.0 16.28999089631971 0.0 0.0 0.0 34.383488856416385" Properties=species:S:1:pos:R:3:initial_magmoms:R:1 pbc="T T T"
Si       1.28752902      -1.31561298      -1.45504129       0.00000000
Si       1.20845736       1.45987722       1.39658933       0.00000000
Si      -1.47071007      -1.14176610       1.52043873       0.00000000
Si      -1.40190111       1.37595114      -1.44813021       0.00000000
Si      -2.47018302       0.69555042       2.61146182       0.00000000
Si      -0.62810982       2.31275646       2.78533922       0.00000000
Si       2.69612532      -2.59037064      -0.02599393       0.00000000
Si       2.65344552       0.22840209       2.74218792       0.00000000
Si       2.65176765       0.04101822      -2.80741343       0.00000000
Si      -0.06858090      -2.67418269      -2.81098932       0.00000000
