10
Lattice="16.28999089631971 0.0 0.0 0.0 16.28999089631971 0.0 0.0 0.0 34.383488856416385" Properties=species:S:1:pos:R:3:initial_magmoms:R:1 pbc="T T T"
Si      -0.61305022      -0.09038344       2.22908283       0.00000000
Si       1.60645317      -1.72325298      -0.11508160       0.00000000
Si       0.48930452       2.29015409      -0.66755581       0.00000000
Si      -1.50781105      -1.24411259      -1.61021407       0.00000000
Si      -0.45862102      -2.39179458       2.22323763       0.00000000
Si       2.11577631      -1.54590375      -2.44473619       0.00000000
Si      -1.06539094       0.18118064      -3.47135897       0.00000000
Si       0.06776477      -3.67197681       0.20843283       0.00000000
Si      -2.52544735       1.39044109       2.51288430       0.00000000
Si       1.29842393       0.31479610      -3.62649736       0.00000000
