10
Lattice="16.28999089631971 0.0 0.0 0.0 16.28999089631971 0.0 0.0 0.0 34.383488856416385" Properties=species:S:1:pos:R:3:initial_magmoms:R:1 pbc="T T T"
Si      -1.65146391      -0.82725507       1.57581822       0.00000000
Si       0.79140078      -2.27273193      -0.46448681       0.00000000
Si       1.11216717       1.67663196       1.40394538       0.00000000
Si      -0.63511452       0.75468312      -2.31810173       0.00000000
Si      -1.32020676      -3.06183582      -1.44541391       0.00000000
Si      -3.06380691      -2.07062190       0.03737487       0.00000000
Si      -0.39977289      -2.25189702       3.03794596       0.00000000
Si       2.34258345       0.47366433       3.02340861       0.00000000
Si       2.65087170       2.91322215       0.04648650       0.00000000
Si       0.55434870       2.67007761      -2.86930375       0.00000000
