10
Lattice="16.28999089631971 0.0 0.0 0.0 16.28999089631971 0.0 0.0 0.0 34.383488856416385" Properties=species:S:1:pos:R:3:initial_magmoms:R:1 pbc="T T T"
Si      -1.45933965      -1.43395983       1.23460862       0.00000000
Si       1.24217766      -1.35278676      -1.53209474       0.00000000
Si       1.30191309       1.43583318       1.57418015       0.00000000
Si      -1.46083833       1.36031274      -1.50981422       0.00000000
Si       2.63581974      -2.66590737      -0.15486332       0.00000000
Si      -2.74240521      -2.59965594      -0.32963469       0.00000000
Si       2.59372638       2.78353746      -0.05872703       0.00000000
Si       2.59318881      -0.00252495      -2.90110849       0.00000000
Si      -3.42358785      -0.15713334       1.88820473       0.00000000
Si      -2.63868678       2.94244641      -0.11669763       0.00000000
