10
Lattice="16.28999089631971 0.0 0.0 0.0 16.28999089631971 0.0 0.0 0.0 34.383488856416385" Properties=species:S:1:pos:R:3:initial_magmoms:R:1 pbc="T T T"
Si      -1.18389204       1.98579987       0.12123625       0.00000000
Si       2.00489175       0.22973787      -1.17237447       0.00000000
Si       0.79524522      -0.11712510       2.24080760       0.00000000
Si      -1.31002551      -1.82294874      -0.85133566       0.00000000
Si      -2.93505075       0.96917355       1.24327327       0.00000000
Si       2.44180584      -1.72520874       1.57108563       0.00000000
Si      -3.33150048      -1.21039587       0.46768448       0.00000000
Si      -1.92117744      -2.91861414       1.24726176       0.00000000
Si       3.73065435      -0.01896156       0.38856802       0.00000000
Si       1.44684522       2.16138978       2.71423413       0.00000000
