10
Lattice="16.28999089631971 0.0 0.0 0.0 16.28999089631971 0.0 0.0 0.0 34.383488856416385" Properties=species:S:1:pos:R:3:initial_magmoms:R:1 pbc="T T T"
Si      -1.36028016       1.31523808       1.40401617       0.00000000
Si       1.38108249      -1.39136148       1.36935415       0.00000000
Si       0.85913460       1.96482228      -1.15492794       0.00000000
Si      -1.25428113      -1.45482732      -1.50703745       0.00000000
Si      -0.63037413       0.36833319      -3.34885883       0.00000000
Si      -2.88662058       2.45424393       0.03830323       0.00000000
Si      -1.09489977       3.45493700      -1.15923172       0.00000000
Si       0.01190799       2.69035444       2.74415466       0.00000000
Si      -2.70303228      -0.02591739       2.75354135       0.00000000
Si       2.72585457      -0.02552643       2.75024054       0.00000000
