10
Lattice="16.28999089631971 0.0 0.0 0.0 16.28999089631971 0.0 0.0 0.0 34.383488856416385" Properties=species:S:1:pos:R:3:initial_magmoms:R:1 pbc="T T T"
Si       1.29864338      -1.30663719      -1.41418337       0.00000000
Si      -1.70685578       0.97950141      -1.23518971       0.00000000
Si       1.36711025       1.35314514       1.33629785       0.00000000
Si      -1.34070545      -1.37459907       1.34203990       0.00000000
Si      -0.17665463       2.08883412      -2.66891254       0.00000000
Si      -3.34945793      -0.88151706      -1.36232273       0.00000000
Si      -0.19801082      -2.41929306      -2.88157664       0.00000000
Si      -2.70689888      -0.00706986       2.68925451       0.00000000
Si       0.00643420       2.70615996       2.69111122       0.00000000
Si       2.71132521       2.69404020      -0.03350673       0.00000000
