10
Lattice="16.28999089631971 0.0 0.0 0.0 16.28999089631971 0.0 0.0 0.0 34.383488856416385" Properties=species:S:1:pos:R:3:initial_magmoms:R:1 pbc="T T T"
Si       1.35472527       1.34407161      -1.38335168       0.00000000
Si       1.47831750      -1.29922524       1.31874507       0.00000000
Si      -1.35927018      -1.37194380      -1.37967264       0.00000000
Si      -1.35873261       1.41411861       1.46270882       0.00000000
Si       0.19010430      -2.59084305       2.75147147       0.00000000
Si       2.72300382       2.67498090      -0.02145531       0.00000000
Si      -2.72205900       2.70321147      -0.00653287       0.00000000
Si      -2.71028133      -2.72220561      -0.01065889       0.00000000
Si       0.00179190       2.70249471      -2.74012491       0.00000000
Si      -2.71345788      -0.01080027      -2.73919655       0.00000000
