10
Lattice="16.28999089631971 0.0 0.0 0.0 16.28999089631971 0.0 0.0 0.0 34.383488856416385" Properties=species:S:1:pos:R:3:initial_magmoms:R:1 pbc="T T T"
Si       1.22497542      -1.66312755      -1.21023072       0.00000000
Si       1.25428113       1.45482732       1.50703745       0.00000000
Si      -1.55973492      -1.26133470       1.43467736       0.00000000
Si       0.62390700       1.82316051      -1.84182138       0.00000000
Si       1.17125100      -0.12210984      -3.05253346       0.00000000
Si      -2.68561827      -0.46169118      -2.52969784       0.00000000
Si      -0.09441684      -2.65416228       2.85002289       0.00000000
Si       2.63536362       0.06346584       2.87639160       0.00000000
Si      -3.34995705      -2.13618915       0.13103555       0.00000000
Si      -0.10599903       2.77006540       2.91105362       0.00000000
