10
Lattice="16.28999089631971 0.0 0.0 0.0 16.28999089631971 0.0 0.0 0.0 34.383488856416385" Properties=species:S:1:pos:R:3:initial_magmoms:R:1 pbc="T T T"
Si       1.35749457       1.35664749       1.35890501       0.00000000
Si      -1.35943308      -1.35904864       1.35818295       0.00000000
Si       1.35870003      -1.36074768      -1.36031473       0.00000000
Si      -1.36666584       1.36146933      -1.36003966       0.00000000
Si      -2.71378368       2.71437012       0.00216616       0.00000000
Si       2.71443530       2.71494027       0.00515753       0.00000000
Si       2.71405780      -0.00114030       2.71591892       0.00000000
Si      -0.00120546       2.71422351       2.71615960       0.00000000
Si       2.71208952      -2.71890593       0.00065329       0.00000000
Si      -2.71599912      -0.00118917       2.71609084       0.00000000
