10
Lattice="16.28999089631971 0.0 0.0 0.0 16.28999089631971 0.0 0.0 0.0 34.383488856416385" Properties=species:S:1:pos:R:3:initial_magmoms:R:1 pbc="T T T"
Si       0.69830343      -0.12411351      -2.25593635       0.00000000
Si      -1.48035375       1.80731034       0.38488899       0.00000000
Si      -1.38248343      -1.98797363      -0.42291715       0.00000000
Si       1.77382366      -0.22624855       1.68963997       0.00000000
Si       0.31684050      -0.57704067       3.47479733       0.00000000
Si       0.59956974      -3.46676354      -0.71180738       0.00000000
Si       2.18746911      -2.02011380      -2.07170951       0.00000000
Si       3.07835292       1.66744440       1.38214826       0.00000000
Si      -1.05023259      -1.07580789      -3.45427037       0.00000000
Si      -3.69392040       0.92323575       0.67752703       0.00000000
