10
Lattice="16.28999089631971 0.0 0.0 0.0 16.28999089631971 0.0 0.0 0.0 34.383488856416385" Properties=species:S:1:pos:R:3:initial_magmoms:R:1 pbc="T T T"
Si      -1.74853602      -0.95169438      -1.19833402       0.00000000
Si       1.03646007       1.79677071      -1.08115503       0.00000000
Si      -0.69830343       0.12411351       2.25593635       0.00000000
Si       1.48916568      -1.89600029       0.18422684       0.00000000
Si       2.18717752       0.25046038      -2.43146416       0.00000000
Si      -2.08078686      -1.86386012       1.83301920       0.00000000
Si      -0.54235926      -2.50420373      -2.43211744       0.00000000
Si      -0.09873369      -3.34265003       1.54412896       0.00000000
Si       3.49097048      -1.09294660      -0.94781578       0.00000000
Si       2.37222540       2.95015158       0.67807716       0.00000000
