10
Lattice="16.28999089631971 0.0 0.0 0.0 16.28999089631971 0.0 0.0 0.0 34.383488856416385" Properties=species:S:1:pos:R:3:initial_magmoms:R:1 pbc="T T T"
Si      -2.28856581       0.23178552       0.16201509       0.00000000
Si       0.14558373       1.00288245      -2.09436824       0.00000000
Si       1.58359977      -1.67427710       0.37381750       0.00000000
Si       1.03679334       1.43335710       1.55048991       0.00000000
Si       3.22370955      -0.12035215      -0.48315706       0.00000000
Si      -2.14845552       2.19235707       1.42763764       0.00000000
Si       2.21467437       0.05525568      -2.64422930       0.00000000
Si       1.09121823       0.01737491       3.41225372       0.00000000
Si       3.03358896       1.98149931       0.52159782       0.00000000
Si      -0.17304867       3.35525130       1.81496786       0.00000000
