10
Lattice="16.28999089631971 0.0 0.0 0.0 16.28999089631971 0.0 0.0 0.0 34.383488856416385" Properties=species:S:1:pos:R:3:initial_magmoms:R:1 pbc="T T T"
Si       0.44242011       1.42529322      -1.86114491       0.00000000
Si       0.90042975      -2.21293397      -0.49450361       0.00000000
Si       1.50781105       1.24411259       1.61021407       0.00000000
Si      -2.32207434      -0.15161366       1.00221049       0.00000000
Si      -2.64803724       1.70512773      -0.42752454       0.00000000
Si       1.57557582      -2.42786423       1.81864689       0.00000000
Si       3.11426423      -0.47914040       1.49513246       0.00000000
Si      -0.98531694       3.17499072      -1.20380100       0.00000000
Si      -0.88032789       0.55389063      -3.53036107       0.00000000
Si       3.62358737      -0.30179117      -0.83452212       0.00000000
