10
Lattice="16.28999089631971 0.0 0.0 0.0 16.28999089631971 0.0 0.0 0.0 34.383488856416385" Properties=species:S:1:pos:R:3:initial_magmoms:R:1 pbc="T T T"
Si      -1.35247725       1.35757602      -1.36017720       0.00000000
Si      -1.35940050      -1.33094187       1.38730578       0.00000000
Si       1.36294750      -1.35915615      -1.35880186       0.00000000
Si       1.36857733       1.35840681       1.38775277       0.00000000
Si       0.23368887      -2.51471988       2.71010811       0.00000000
Si      -2.70845685       2.71243161      -0.00061890       0.00000000
Si      -2.71085148      -0.00100998      -2.71650344       0.00000000
Si       0.00389412       2.71344159      -2.71660659       0.00000000
Si       2.71555019       2.71480995       0.00127219       0.00000000
Si      -2.71303434      -2.71858923      -0.00278506       0.00000000
