10
Lattice="16.28999089631971 0.0 0.0 0.0 16.28999089631971 0.0 0.0 0.0 34.383488856416385" Properties=species:S:1:pos:R:3:initial_magmoms:R:1 pbc="T T T"
Si       1.34961021       1.36034532      -1.37977580       0.00000000
Si      -1.36640520      -1.35452979      -1.37795347       0.00000000
Si      -1.32670647       1.41190317       1.36801664       0.00000000
Si       1.40458896      -1.19961189       1.56273044       0.00000000
Si       2.69866656      -2.68302816       0.00814889       0.00000000
Si       2.71909422       2.70770751      -0.02097394       0.00000000
Si      -2.73064383      -2.71116099      -0.02558133       0.00000000
Si       2.70558981       0.00548973      -2.73933409       0.00000000
Si      -2.72034855       2.72502378      -0.00921478       0.00000000
Si      -0.00794952      -2.71093293      -2.73881834       0.00000000
