10
Lattice="16.28999089631971 0.0 0.0 0.0 16.28999089631971 0.0 0.0 0.0 34.383488856416385" Properties=species:S:1:pos:R:3:initial_magmoms:R:1 pbc="T T T"
Si       1.34697286       1.35640314      -1.38648058       0.00000000
Si      -1.36857733      -1.35840681      -1.38775277       0.00000000
Si       1.42674499      -1.32659244       1.43248571       0.00000000
Si      -1.25249558       1.48766796       1.43812461       0.00000000
Si       2.76540832       0.28657368       2.60310663       0.00000000
Si      -2.70755017       2.70138699      -0.02956982       0.00000000
Si      -2.72797783      -2.68934868      -0.00044699       0.00000000
Si       2.68508233       2.73600324      -0.04043501       0.00000000
Si       2.71499077      -2.72769534      -0.00233808       0.00000000
Si       2.70951733      -0.00259011      -2.74731106       0.00000000
