10
Lattice="16.28999089631971 0.0 0.0 0.0 16.28999089631971 0.0 0.0 0.0 34.383488856416385" Properties=species:S:1:pos:R:3:initial_magmoms:R:1 pbc="T T T"
Si       1.91510127       1.29134088      -0.08025111       0.00000000
Si      -1.98953028       1.04058891       0.60006098       0.00000000
Si      -0.26498943      -0.68382162      -2.23637213       0.00000000
Si       0.89428842      -1.40059791       1.68747381       0.00000000
Si       3.08789982       0.26002098      -1.78395393       0.00000000
Si      -3.54229308      -0.74274255       0.33317619       0.00000000
Si       0.94485258      -2.60571582      -2.50085008       0.00000000
Si       1.26900729       3.45600495      -0.71675861       0.00000000
Si       1.85381829       0.06128298       3.29889130       0.00000000
Si      -0.76843188      -2.87046090       2.46375027       0.00000000
