10
Lattice="16.28999089631971 0.0 0.0 0.0 16.28999089631971 0.0 0.0 0.0 34.383488856416385" Properties=species:S:1:pos:R:3:initial_magmoms:R:1 pbc="T T T"
Si       1.70685578      -0.97950141       1.23518971       0.00000000
Si      -0.99447192       1.72566486       1.21924607       0.00000000
Si       1.53020115       1.10933271      -1.43372283       0.00000000
Si      -1.64260215      -1.86101847      -0.12713302       0.00000000
Si      -0.65599830      -2.31803442      -2.24665422       0.00000000
Si      -0.05129721       1.54236978      -3.08268921       0.00000000
Si       0.36615033      -2.35410048       2.57722960       0.00000000
Si      -2.36969001       0.37841670       2.57152194       0.00000000
Si      -1.65729573      -0.20096973      -3.38247902       0.00000000
Si       3.00549915      -2.28613860      -0.17899367       0.00000000
