10
Lattice="16.28999089631971 0.0 0.0 0.0 16.28999089631971 0.0 0.0 0.0 34.383488856416385" Properties=species:S:1:pos:R:3:initial_magmoms:R:1 pbc="T T T"
Si       1.28821320       1.29161781      -1.43272640       0.00000000
Si      -0.82754829       1.81899027       1.27772554       0.00000000
Si       1.39271355      -1.12575303       1.67788081       0.00000000
Si      -1.50674355      -1.44448317      -1.38489894       0.00000000
Si      -0.95141745      -1.75298319       2.40096599       0.00000000
Si      -0.97661808       0.89707401       3.41974933       0.00000000
Si       2.69793351      -2.53425159       0.25148098       0.00000000
Si       2.53905714      -0.14867883      -2.77388951       0.00000000
Si      -0.19010430       2.59084305      -2.75147147       0.00000000
Si       3.09672900       2.21100912      -0.08950027       0.00000000
