10
Lattice="16.28999089631971 0.0 0.0 0.0 16.28999089631971 0.0 0.0 0.0 34.383488856416385" Properties=species:S:1:pos:R:3:initial_magmoms:R:1 pbc="T T T"
Si       1.54109916       1.72994913      -0.01010875       0.00000000
Si       0.96058872      -1.53256320       1.50706354       0.00000000
Si      -2.22990552       0.59611626       0.53174095       0.00000000
Si       0.05390361      -1.58423508      -1.79392515       0.00000000
Si      -2.88150552      -1.68239862       0.05831443       0.00000000
Si      -1.23494490      -3.29048226      -0.61140754       0.00000000
Si       1.17198405       2.90282913      -1.99754428       0.00000000
Si       2.68012854      -2.58696603       0.12749405       0.00000000
Si       2.17583901      -0.53133093       3.25350507       0.00000000
Si       1.36748034       3.35495808       1.63335417       0.00000000
