10
Lattice="16.28999089631971 0.0 0.0 0.0 16.28999089631971 0.0 0.0 0.0 34.383488856416385" Properties=species:S:1:pos:R:3:initial_magmoms:R:1 pbc="T T T"
Si       1.79668926       1.33108848       0.77778934       0.00000000
Si      -2.20255950       0.87101001      -0.26440918       0.00000000
Si      -0.70925031      -1.58402331       1.64483826       0.00000000
Si       0.84611889      -1.37249766      -1.77865887       0.00000000
Si       3.47638374      -0.29631510       0.33145702       0.00000000
Si      -0.33286986      -3.30172236      -1.26957665       0.00000000
Si      -3.37368248      -1.20199023      -0.61828424       0.00000000
Si       1.59066963       3.37022181      -0.46947242       0.00000000
Si       2.95443585      -2.21750883      -1.07637572       0.00000000
Si      -2.81167748       2.05156260       1.76143274       0.00000000
