10
Lattice="16.28999089631971 0.0 0.0 0.0 16.28999089631971 0.0 0.0 0.0 34.383488856416385" Properties=species:S:1:pos:R:3:initial_magmoms:R:1 pbc="T T T"
Si      -1.17898875      -1.92922470       0.50908222       0.00000000
Si       2.10831696      -0.84501117       0.70228315       0.00000000
Si      -0.84611889       1.37249766       1.77865887       0.00000000
Si      -0.35424234       0.81943587      -2.27171838       0.00000000
Si       2.63026485       1.07618256       2.11011589       0.00000000
Si      -3.35470396      -1.54890207      -0.17996328       0.00000000
Si       3.43288944      -0.69284628      -1.20486689       0.00000000
Si      -1.55536920      -0.21152565       3.42349713       0.00000000
Si       0.95057037       2.70358614       2.55644821       0.00000000
Si       0.06195087      -3.85590816       0.16583166       0.00000000
