10
Lattice="16.28999089631971 0.0 0.0 0.0 16.28999089631971 0.0 0.0 0.0 34.383488856416385" Properties=species:S:1:pos:R:3:initial_magmoms:R:1 pbc="T T T"
Si       1.35542085       1.35695537      -1.35711706       0.00000000
Si       1.35807612      -1.35729336       1.35763282       0.00000000
Si      -1.35742800       1.35796535       1.35777035       0.00000000
Si      -1.35939628      -1.35980028      -1.35749528       0.00000000
Si      -0.00345511      -2.70629910      -2.71681289       0.00000000
Si      -0.00045286       2.71332593      -2.71464673       0.00000000
Si       0.00272043      -2.71349928       2.71474988       0.00000000
Si      -2.71496863      -2.71434636       0.00075644       0.00000000
Si       2.71506570      -2.71455813       0.00068767       0.00000000
Si      -2.71399123       2.71575314       0.00075644       0.00000000
