10
Lattice="16.28999089631971 0.0 0.0 0.0 16.28999089631971 0.0 0.0 0.0 34.383488856416385" Properties=species:S:1:pos:R:3:initial_magmoms:R:1 pbc="T T T"
Si      -0.65852325       1.25695269      -1.90412429       0.00000000
Si      -1.39108129      -1.24976880       1.47179435       0.00000000
Si       1.38165264       1.42781850       1.38582527       0.00000000
Si       0.82171647      -1.60624287      -1.65879796       0.00000000
Si      -2.86637930       2.14570251       0.21706519       0.00000000
Si       0.40487166       0.04890258      -3.58991331       0.00000000
Si      -2.88773549      -2.36242467       0.00440109       0.00000000
Si      -1.13603528      -3.25317816      -1.48007249       0.00000000
Si       2.79769347      -2.49564429      -0.15840482       0.00000000
Si       0.03389949      -2.66181858       2.84124134       0.00000000
