10
Lattice="16.28999089631971 0.0 0.0 0.0 16.28999089631971 0.0 0.0 0.0 34.383488856416385" Properties=species:S:1:pos:R:3:initial_magmoms:R:1 pbc="T T T"
Si      -1.29617821      -1.17185373       1.55767607       0.00000000
Si      -1.45505458       1.21371903      -1.46769443       0.00000000
Si       1.25249558      -1.48766796      -1.43812461       0.00000000
Si       1.00188208       1.77533307       1.36715705       0.00000000
Si       2.19489000      -0.21437640       2.29984409       0.00000000
Si       0.69674757      -2.02336461       2.81834739       0.00000000
Si      -2.70589852       2.65401567      -0.12653131       0.00000000
Si      -0.11360498       2.57870700      -2.82353930       0.00000000
Si       2.59946844      -0.13126482      -2.82460519       0.00000000
Si      -2.76955984      -2.69360037       0.11600996       0.00000000
