10
Lattice="10.86 0.0 0.0 0.0 10.86 0.0 0.0 0.0 10.86" Properties=species:S:1:pos:R:3:initial_magmoms:R:1 pbc="T T T"
Si       1.43497524       1.27789620       1.13784564       0.00000000
Si      -1.22965608      -1.48904718       1.17896160       0.00000000
Si      -1.22965608       1.22595282      -1.53603840       0.00000000
Si       1.48534392      -1.48904718      -1.53603840       0.00000000
Si      -2.58715608      -0.13154718       2.53646160       0.00000000
Si      -2.58715608       2.58345282      -0.17853840       0.00000000
Si       0.22653960       2.67489402      -2.65340208       0.00000000
Si       2.80524660      -0.21609228       2.52099696       0.00000000
Si       0.12784392      -2.84654718       2.53646160       0.00000000
Si       0.32809146       2.56958460       2.81287032       0.00000000
