10
Lattice="10.86 0.0 0.0 0.0 10.86 0.0 0.0 0.0 10.86" Properties=species:S:1:pos:R:3:initial_magmoms:R:1 pbc="T T T"
Si       1.31626458       1.22065314       1.35061476       0.00000000
Si       1.31626458      -1.49434686      -1.36438524       0.00000000
Si      -1.39873542      -1.49434686       1.35061476       0.00000000
Si       2.67376458       2.57815314      -0.00688524       0.00000000
Si      -0.11041362       2.67418812       2.59024032       0.00000000
Si      -0.25148502       2.39087244      -2.94138756       0.00000000
Si       2.67376458      -0.13684686       2.70811476       0.00000000
Si       2.67376458      -0.13684686      -2.72188524       0.00000000
Si      -2.79383274      -0.22139196       2.69265012       0.00000000
Si       2.67376458      -2.85184686      -0.00688524       0.00000000
