10
Lattice="10.86 0.0 0.0 0.0 10.86 0.0 0.0 0.0 10.86" Properties=species:S:1:pos:R:3:initial_magmoms:R:1 pbc="T T T"
Si       1.14996540       1.42081380       1.27309608       0.00000000
Si      -1.45619568      -1.44894120       1.11736368       0.00000000
Si       1.25880432      -1.44894120      -1.59763632       0.00000000
Si      -1.45619568       1.26605880      -1.59763632       0.00000000
Si      -0.15071508       2.68145346       2.60521626       0.00000000
Si      -2.81369568      -0.09144120       2.47486368       0.00000000
Si       2.39525988      -2.88551286      -0.23873538       0.00000000
Si      -0.22653960      -2.67489402       2.65340208       0.00000000
Si      -2.81369568       2.62355880      -0.24013632       0.00000000
Si       2.79406080       2.71542354      -0.20226750       0.00000000
