10
Lattice="16.28999089631971 0.0 0.0 0.0 16.28999089631971 0.0 0.0 0.0 34.71893929493243" Properties=species:S:1:pos:R:3:initial_magmoms:R:1 pbc="T T T"
Si      -1.41226155       0.93283056       1.63569143       0.00000000
Si      -1.84770954      -0.53574552      -1.48138853       0.00000000
Si       1.43176068       1.37451762      -1.48076359       0.00000000
Si       1.30274388      -1.88450865       1.20530337       0.00000000
Si       0.29032038       1.86210990       2.83567585       0.00000000
Si      -1.98249300       1.74097746      -2.45601914       0.00000000
Si       3.43271025      -0.12158856      -1.27442882       0.00000000
Si      -2.41310449      -0.80764191       2.77333449       0.00000000
Si       2.81209383       2.74001058      -0.17029649       0.00000000
Si       1.24906833       3.43937842       1.43909116       0.00000000
