10
Lattice="16.28999089631971 0.0 0.0 0.0 16.28999089631971 0.0 0.0 0.0 34.71893929493243" Properties=species:S:1:pos:R:3:initial_magmoms:R:1 pbc="T T T"
Si       1.18496718      -1.45386623      -1.49399151       0.00000000
Si      -0.94573224      -1.73436374       1.41399903       0.00000000
Si      -1.52235589       1.25473790      -1.47097284       0.00000000
Si       1.82850363       0.75670536       1.47861101       0.00000000
Si       2.53089585       2.55761862       0.06607018       0.00000000
Si       2.47668273      -2.83517678      -0.08016608       0.00000000
Si       2.54371608      -0.10945253      -2.85695367       0.00000000
Si      -0.16961148       2.60679813      -2.85809940       0.00000000
Si      -2.77539490      -2.75582819      -0.01107535       0.00000000
Si      -2.91122567       2.62742127      -0.07256262       0.00000000
