10
Lattice="16.28999089631971 0.0 0.0 0.0 16.28999089631971 0.0 0.0 0.0 34.71893929493243" Properties=species:S:1:pos:R:3:initial_magmoms:R:1 pbc="T T T"
Si       1.35659862       1.34645321      -1.38556420       0.00000000
Si      -1.36158336      -1.36810329      -1.38080771       0.00000000
Si       1.33095816      -1.42741518       1.38174512       0.00000000
Si      -1.37440359       1.29896786       1.54221615       0.00000000
Si      -2.07679581      -0.50194540       2.95475698       0.00000000
Si      -0.25472673      -2.45735043       2.81723518       0.00000000
Si       2.70990666       2.69420636      -0.01989396       0.00000000
Si      -2.71769328       2.68767407       0.00114573       0.00000000
Si       2.69628822      -2.72866038      -0.02940696       0.00000000
Si      -2.72033226      -2.71251699      -0.01784554       0.00000000
