10
Lattice="16.28999089631971 0.0 0.0 0.0 16.28999089631971 0.0 0.0 0.0 34.71893929493243" Properties=species:S:1:pos:R:3:initial_magmoms:R:1 pbc="T T T"
Si      -1.21648086       2.04056685       0.29091015       0.00000000
Si       2.37428216       0.01969135       0.54026172       0.00000000
Si      -1.41875379      -0.66859861       1.87659444       0.00000000
Si      -0.11589358      -1.59681815      -1.95526760       0.00000000
Si      -3.06337590       0.79987158       1.02698680       0.00000000
Si       2.06426717      -0.44355552       2.79303607       0.00000000
Si       0.32069146      -3.55078736      -0.70604474       0.00000000
Si      -2.46533742      -1.75457051      -2.03682243       0.00000000
Si      -0.13387611       2.97111681       2.13132744       0.00000000
Si      -1.02101715       3.06268290      -1.83479281       0.00000000
