10
Lattice="16.28999089631971 0.0 0.0 0.0 16.28999089631971 0.0 0.0 0.0 34.71893929493243" Properties=species:S:1:pos:R:3:initial_magmoms:R:1 pbc="T T T"
Si       0.55126989      -0.17440074      -2.23409555       0.00000000
Si       1.82715156       0.99453708       1.08298848       0.00000000
Si      -1.98956286       1.27834146       0.27566853       0.00000000
Si      -0.56751102      -2.26991376       0.49061361       0.00000000
Si       0.95236227       0.36238734       3.23434875       0.00000000
Si      -1.32888933      -1.48558284      -2.81279116       0.00000000
Si      -2.36538945      -2.68339957      -0.99959354       0.00000000
Si      -1.32054885      -0.44010693       3.47272912       0.00000000
Si       2.85785244      -0.63283392      -2.35651460       0.00000000
Si       0.32602806       1.93054419      -3.24032042       0.00000000
