10
Lattice="16.28999089631971 0.0 0.0 0.0 16.28999089631971 0.0 0.0 0.0 34.71893929493243" Properties=species:S:1:pos:R:3:initial_magmoms:R:1 pbc="T T T"
Si       0.52220853       1.69091829       1.57676151       0.00000000
Si      -2.24440362       0.49378248      -0.59879788       0.00000000
Si       1.38489435       0.10116090      -1.96693317       0.00000000
Si       0.60395175      -2.09434014       1.02500782       0.00000000
Si       3.36122973      -0.98396487      -0.91772624       0.00000000
Si       0.41738238       0.53504505       3.58549630       0.00000000
Si       2.86638840       2.05301241       1.41021466       0.00000000
Si      -2.65289166       2.76690537      -0.04412780       0.00000000
Si      -1.04122422      -3.67443756       0.39447681       0.00000000
Si      -3.69455571      -0.68180166       0.88168796       0.00000000
