10
Lattice="16.28999089631971 0.0 0.0 0.0 16.28999089631971 0.0 0.0 0.0 34.71893929493243" Properties=species:S:1:pos:R:3:initial_magmoms:R:1 pbc="T T T"
Si       1.35637056       1.35767376      -1.35740713       0.00000000
Si      -1.35643572      -1.35900954      -1.35650444       0.00000000
Si       1.35764118      -1.35773892       1.35834454       0.00000000
Si      -1.35764118       1.35826020       1.35806679       0.00000000
Si      -0.00526167      -2.71124244      -2.71411988       0.00000000
Si      -2.71496145      -2.71433754       0.00083326       0.00000000
Si       2.71490769      -2.71459818       0.00010416       0.00000000
Si      -0.00099369      -2.71611315       2.71411988       0.00000000
Si      -2.71501846       2.71534752       0.00034719       0.00000000
Si      -2.71545992       0.00179190       2.71495313       0.00000000
