10
Lattice="16.28999089631971 0.0 0.0 0.0 16.28999089631971 0.0 0.0 0.0 34.71893929493243" Properties=species:S:1:pos:R:3:initial_magmoms:R:1 pbc="T T T"
Si       1.35329175       1.35203742      -1.39997257       0.00000000
Si      -1.36300059      -1.36225125      -1.39844494       0.00000000
Si       1.41737661      -1.27803195       1.56905390       0.00000000
Si      -1.43967762       1.38727269       1.47298654       0.00000000
Si       2.70586674      -2.70803331      -0.01270714       0.00000000
Si       2.72088612       2.70073539      -0.00541616       0.00000000
Si      -2.72247765       2.71358820      -0.03291357       0.00000000
Si      -2.72217629      -2.71860552      -0.00628413       0.00000000
Si       2.71080261      -0.00506619      -2.76217092       0.00000000
Si      -0.00412137       2.71238274      -2.76366383       0.00000000
