10
Lattice="16.28999089631971 0.0 0.0 0.0 16.28999089631971 0.0 0.0 0.0 34.71893929493243" Properties=species:S:1:pos:R:3:initial_magmoms:R:1 pbc="T T T"
Si      -1.81602549      -1.29000510      -0.77527435       0.00000000
Si      -0.22209786      -0.15547176       2.38435921       0.00000000
Si       2.06132031      -1.37863899      -0.54290036       0.00000000
Si      -0.26495685       2.32314948      -1.31334877       0.00000000
Si       1.80401976       0.51994422       3.29250301       0.00000000
Si      -0.85341681      -2.17145700      -3.00555082       0.00000000
Si      -3.61962171       0.40417119      -1.13003267       0.00000000
Si       2.03150961       2.96649045      -1.45389111       0.00000000
Si       2.03714595       0.89160057      -3.18591581       0.00000000
Si      -2.47085091      -2.75129955       1.32876399       0.00000000
