10
Lattice="16.28999089631971 0.0 0.0 0.0 16.28999089631971 0.0 0.0 0.0 34.71893929493243" Properties=species:S:1:pos:R:3:initial_magmoms:R:1 pbc="T T T"
Si       1.37922543       1.88928162       0.07086139       0.00000000
Si       0.74367108      -2.23475994      -0.40829495       0.00000000
Si      -1.44549315       0.49454811      -1.86506774       0.00000000
Si      -1.41623631      -0.12194694       1.97071753       0.00000000
Si      -1.66438188      -2.46783726       1.89141943       0.00000000
Si      -1.05210594      -2.96727237      -1.67709930       0.00000000
Si      -0.00210141       3.37286079       1.37299594       0.00000000
Si      -3.63195324       0.45978525      -0.85734997       0.00000000
Si       0.52242030      -3.42365301       1.57391455       0.00000000
Si      -3.38672358       1.12378194       1.40549289       0.00000000
