10
Lattice="16.28999089631971 0.0 0.0 0.0 16.28999089631971 0.0 0.0 0.0 34.71893929493243" Properties=species:S:1:pos:R:3:initial_magmoms:R:1 pbc="T T T"
Si       1.35589815       1.35832536      -1.35667803       0.00000000
Si       1.35687555      -1.35728280       1.35830982       0.00000000
Si      -1.35830907       1.35811359       1.35754600       0.00000000
Si      -1.35941679      -1.35744570      -1.35744185       0.00000000
Si       0.00179190       2.71754667      -2.70964113       0.00000000
Si       2.71261080       0.00083079      -2.71623773       0.00000000
Si       2.71396287       0.00081450       2.71530032       0.00000000
Si       2.71414206       2.71513575       0.00069438       0.00000000
Si      -2.71544526       0.00254124       2.71401572       0.00000000
Si       2.71467963      -2.71503801       0.00031247       0.00000000
