10
Lattice="16.28999089631971 0.0 0.0 0.0 16.28999089631971 0.0 0.0 0.0 34.71893929493243" Properties=species:S:1:pos:R:3:initial_magmoms:R:1 pbc="T T T"
Si       1.35648459       1.35616788      -1.35709466       0.00000000
Si       1.35567009      -1.35640314       1.35792791       0.00000000
Si      -1.35927018       1.35404109       1.36004577       0.00000000
Si      -1.35850455      -1.35816246      -1.35692106       0.00000000
Si       2.69860140      -0.00651600       2.71144652       0.00000000
Si       2.71262709       2.71410363      -0.00062494       0.00000000
Si      -0.00070047       2.71354000      -2.71387684       0.00000000
Si       2.71394658      -0.00114030      -2.71377269       0.00000000
Si      -2.71565703       2.71334126       0.00034719       0.00000000
Si       2.71376739      -2.71546155       0.00083326       0.00000000
