10
Lattice="16.28999089631971 0.0 0.0 0.0 16.28999089631971 0.0 0.0 0.0 34.71893929493243" Properties=species:S:1:pos:R:3:initial_magmoms:R:1 pbc="T T T"
Si       1.58568489       1.02993525      -1.43549007       0.00000000
Si      -1.17388998      -1.63647711      -1.42125529       0.00000000
Si       1.13837778      -1.32289461       2.02689281       0.00000000
Si      -1.82206908       1.95540503       0.13752180       0.00000000
Si       0.34673265       0.23970735       3.66382227       0.00000000
Si       0.25472673       2.45735043      -2.81723518       0.00000000
Si      -2.46560553      -0.25516656      -2.83508073       0.00000000
Si      -2.87810091      -2.50087338       0.00378437       0.00000000
Si       0.92600505       2.35472506       3.00430093       0.00000000
Si       3.39001416       2.05203568      -0.28007784       0.00000000
