10
Lattice="16.28999089631971 0.0 0.0 0.0 16.28999089631971 0.0 0.0 0.0 34.71893929493243" Properties=species:S:1:pos:R:3:initial_magmoms:R:1 pbc="T T T"
Si      -0.94012848      -2.11743936       0.43058453       0.00000000
Si      -1.25261955       1.61789415       1.25328497       0.00000000
Si       2.33324928      -0.57622617       0.26612082       0.00000000
Si       2.91252168       1.53879154      -0.39340052       0.00000000
Si       0.16444755       1.13947151      -3.26017966       0.00000000
Si       0.26373510       3.47143877       1.25387519       0.00000000
Si      -3.30621025      -1.95258456       0.00697851       0.00000000
Si      -3.74279529       0.00138465      -1.24224434       0.00000000
Si      -0.43205967      -2.99778354       2.60083191       0.00000000
Si      -1.56263454       1.15464727       3.50605933       0.00000000
