10
Lattice="16.28999089631971 0.0 0.0 0.0 16.28999089631971 0.0 0.0 0.0 34.71893929493243" Properties=species:S:1:pos:R:3:initial_magmoms:R:1 pbc="T T T"
Si      -1.63383813      -1.12023072      -1.22672497       0.00000000
Si       1.60309890      -1.69911216      -0.20154356       0.00000000
Si      -1.11275361       0.26231787       2.06452816       0.00000000
Si       0.29519109       2.02359008      -1.22189903       0.00000000
Si      -1.10425023       2.63653065       2.01140815       0.00000000
Si       1.61775990      -1.82726559      -2.59729058       0.00000000
Si      -2.64473037      -2.38614291       0.49710605       0.00000000
Si      -1.81723095       2.22903793      -2.34102995       0.00000000
Si      -3.37844826      -0.50795478       1.73035818       0.00000000
Si      -0.68665608      -1.92339288      -3.24625736       0.00000000
