10
Lattice="16.28999089631971 0.0 0.0 0.0 16.28999089631971 0.0 0.0 0.0 34.71893929493243" Properties=species:S:1:pos:R:3:initial_magmoms:R:1 pbc="T T T"
Si       1.38132684      -1.48357917      -1.30213455       0.00000000
Si       0.37709721       2.30095779      -0.70934305       0.00000000
Si      -2.47011786      -0.00355122      -0.14491693       0.00000000
Si       1.49232690      -0.77012604       1.82496734       0.00000000
Si       1.84428864       1.37158542       2.57614674       0.00000000
Si       0.00210141      -3.37286079      -1.37299594       0.00000000
Si       1.41667614      -0.37080927      -3.34607436       0.00000000
Si       1.81952784       3.11029924       1.02934769       0.00000000
Si       1.90480599       1.92588525      -2.66096515       0.00000000
Si      -1.41413490      -3.49480773       0.59772159       0.00000000
