10
Lattice="16.28999089631971 0.0 0.0 0.0 16.28999089631971 0.0 0.0 0.0 34.71893929493243" Properties=species:S:1:pos:R:3:initial_magmoms:R:1 pbc="T T T"
Si      -1.35648459      -1.35616788       1.35709466       0.00000000
Si       1.35614250       1.35793576       1.35646972       0.00000000
Si      -1.35718506       1.35737212      -1.35678219       0.00000000
Si       1.35746199      -1.35730818      -1.35667803       0.00000000
Si       0.00242721       2.71242971       2.71238393       0.00000000
Si      -0.00081450      -2.71257102       2.71502257       0.00000000
Si      -0.00078192      -2.71411857      -2.71405044       0.00000000
Si       2.71344159       0.00018639      -2.71474482       0.00000000
Si      -2.71451673      -0.00078921      -2.71384213       0.00000000
Si      -0.00115659       2.71368404      -2.71471010       0.00000000
