10
Lattice="16.28999089631971 0.0 0.0 0.0 16.28999089631971 0.0 0.0 0.0 34.71893929493243" Properties=species:S:1:pos:R:3:initial_magmoms:R:1 pbc="T T T"
Si       0.47664540      -1.98314460       1.30487734       0.00000000
Si       0.82860714      -1.59464439      -1.66307284       0.00000000
Si      -1.94370651       1.26244242      -1.10663209       0.00000000
Si       0.97103061       2.05526043       1.35601837       0.00000000
Si       1.90425213       0.07542270      -2.96326312       0.00000000
Si      -2.90631519       2.14389432       1.12364438       0.00000000
Si      -0.74622861       2.84195340      -2.59388812       0.00000000
Si       2.58087357       2.99332008      -0.16998402       0.00000000
Si      -0.90824895      -2.08430550       3.27181051       0.00000000
Si       3.47490135       1.20482469      -1.58544125       0.00000000
