10
Lattice="16.28999089631971 0.0 0.0 0.0 16.28999089631971 0.0 0.0 0.0 34.71893929493243" Properties=species:S:1:pos:R:3:initial_magmoms:R:1 pbc="T T T"
Si      -1.19208591       1.94927769       0.34184287       0.00000000
Si       2.27672298       0.44981577      -0.27476584       0.00000000
Si      -0.28004139      -1.53248175       1.74615531       0.00000000
Si      -0.69724458      -1.08769959      -1.98609803       0.00000000
Si       0.03018537      -3.55205079       0.65580641       0.00000000
Si      -1.48915035      -3.12717501      -1.04212426       0.00000000
Si       2.46236382      -0.00513135      -2.67690115       0.00000000
Si      -0.17202240       2.94417315       2.24662910       0.00000000
Si       3.28046391      -0.61737471       1.66418385       0.00000000
Si      -2.60411940      -1.62346140       2.18489879       0.00000000
