10
Lattice="16.28999089631971 0.0 0.0 0.0 16.28999089631971 0.0 0.0 0.0 34.71893929493243" Properties=species:S:1:pos:R:3:initial_magmoms:R:1 pbc="T T T"
Si       0.10482615       1.15587324      -2.00873479       0.00000000
Si       1.03697253      -2.05477173      -0.33222572       0.00000000
Si      -2.14751070      -0.66876966       0.71684234       0.00000000
Si       0.93584421       1.20982572       1.80545529       0.00000000
Si      -2.48197698       1.19726613       2.04598824       0.00000000
Si       2.44900602       1.51796736      -2.17528164       0.00000000
Si       0.38431368      -3.23214777       1.60064815       0.00000000
Si      -0.41738238      -0.53504505      -3.58549630       0.00000000
Si      -1.63323540       2.77115706      -1.77594418       0.00000000
Si       0.18656937      -2.62938519      -2.56048848       0.00000000
