10
Lattice="16.28999089631971 0.0 0.0 0.0 16.28999089631971 0.0 0.0 0.0 34.71893929493243" Properties=species:S:1:pos:R:3:initial_magmoms:R:1 pbc="T T T"
Si      -0.92519055      -1.34245890       1.67067629       0.00000000
Si       1.53187902      -1.47575997      -1.09090440       0.00000000
Si       1.00276353       1.61218872       1.48052056       0.00000000
Si      -0.98047881       1.75656699      -1.35796263       0.00000000
Si      -2.04375969       1.66777020       1.51208009       0.00000000
Si      -3.10622607      -0.56044116       1.35633084       0.00000000
Si       0.77559948       1.96595865      -2.97590083       0.00000000
Si      -0.19901493      -3.55833873       1.19610285       0.00000000
Si       3.46766859      -0.17145225      -1.54402153       0.00000000
Si       2.12700159      -3.10573737       0.63577357       0.00000000
