10
Lattice="16.28999089631971 0.0 0.0 0.0 16.28999089631971 0.0 0.0 0.0 34.71893929493243" Properties=species:S:1:pos:R:3:initial_magmoms:R:1 pbc="T T T"
Si      -1.63401732       1.33217991      -1.11701306       0.00000000
Si      -1.60984296      -0.93805965       1.52600239       0.00000000
Si       0.89402778      -1.78849539      -1.41545723       0.00000000
Si       2.15976078       1.02903930       0.89814474       0.00000000
Si       2.10342996      -0.23991912      -2.70526654       0.00000000
Si       2.27625057      -0.83429235       2.54917010       0.00000000
Si       0.03018537      -1.29401244       3.32378479       0.00000000
Si      -1.63965366       3.40706979       0.61501163       0.00000000
Si      -0.68207859       2.56419261      -2.79886886       0.00000000
Si      -2.58087357      -2.99332008       0.16998402       0.00000000
