10
Lattice="16.28999089631971 0.0 0.0 0.0 16.28999089631971 0.0 0.0 0.0 34.71893929493243" Properties=species:S:1:pos:R:3:initial_magmoms:R:1 pbc="T T T"
Si       1.29415905      -1.40470299      -1.33115960       0.00000000
Si      -1.44067131       1.32859611      -1.29321177       0.00000000
Si      -1.07564499      -1.67006709       1.30019028       0.00000000
Si       1.57064922       1.12940199       1.37782188       0.00000000
Si      -1.90425213      -0.07542270       2.96326312       0.00000000
Si       2.62917342      -2.58400125       0.18508677       0.00000000
Si       0.74749923      -3.34971270       1.37108640       0.00000000
Si       2.64163527      -0.05084109      -2.68092855       0.00000000
Si      -0.07525980       2.66396886      -2.67485273       0.00000000
Si       3.40970877      -0.53888949       1.55783968       0.00000000
