10
Lattice="16.28999089631971 0.0 0.0 0.0 16.28999089631971 0.0 0.0 0.0 34.71893929493243" Properties=species:S:1:pos:R:3:initial_magmoms:R:1 pbc="T T T"
Si       1.35677618       1.35747828      -1.35824038       0.00000000
Si       1.35778616      -1.35848826       1.35747657       0.00000000
Si      -1.35772455      -1.35725022      -1.35879589       0.00000000
Si      -1.36098945       1.35944937       1.36337879       0.00000000
Si       2.71340738       2.71370223      -0.00180539       0.00000000
Si      -2.71476990      -2.71262709      -0.00097213       0.00000000
Si       2.71472687      -2.71543874      -0.00107629       0.00000000
Si       2.71436849       0.00001629      -2.71592526       0.00000000
Si      -0.00054734      -2.71492235      -2.71543920       0.00000000
Si      -0.00056038       2.71547784      -2.71509201       0.00000000
