10
Lattice="16.28999089631971 0.0 0.0 0.0 16.28999089631971 0.0 0.0 0.0 34.71893929493243" Properties=species:S:1:pos:R:3:initial_magmoms:R:1 pbc="T T T"
Si       0.35196174       2.14171146       0.75117939       0.00000000
Si      -1.45762920      -0.41559048       1.81632232       0.00000000
Si       2.26417968      -0.83769696      -0.26289196       0.00000000
Si      -1.49232690       0.77012604      -1.82496734       0.00000000
Si      -0.11100006      -0.71345313      -3.12710189       0.00000000
Si      -1.75617603      -2.64683178       1.03688170       0.00000000
Si       2.20820724      -1.13230161      -2.61031019       0.00000000
Si       0.52579233      -3.53154168       0.98702528       0.00000000
Si      -3.45857877       1.08051570       1.60998755       0.00000000
Si       0.32720094       3.88042528      -0.79561966       0.00000000
