10
Lattice="16.28999089631971 0.0 0.0 0.0 16.28999089631971 0.0 0.0 0.0 34.71893929493243" Properties=species:S:1:pos:R:3:initial_magmoms:R:1 pbc="T T T"
Si      -1.36283769      -1.34679204      -1.44753754       0.00000000
Si      -2.04991731       0.22372686       1.25474317       0.00000000
Si       1.44052470      -1.08952407       1.64824785       0.00000000
Si       1.41679017       1.52484174      -1.32084806       0.00000000
Si       2.48020137      -2.49227226      -0.02260204       0.00000000
Si      -1.86584031      -1.66188951       2.67117253       0.00000000
Si       0.04903290      -3.01519755       2.29711046       0.00000000
Si      -2.92112280      -2.52921798      -0.03492727       0.00000000
Si      -0.00444717      -2.65118121      -2.91111525       0.00000000
Si       2.70528030       0.09484038      -2.90260910       0.00000000
