10
Lattice="16.28999089631971 0.0 0.0 0.0 16.28999089631971 0.0 0.0 0.0 34.71893929493243" Properties=species:S:1:pos:R:3:initial_magmoms:R:1 pbc="T T T"
Si       0.03534930       1.11276990      -2.04393982       0.00000000
Si      -1.37922543      -1.88928162      -0.07086139       0.00000000
Si      -1.38132684       1.48357917       1.30213455       0.00000000
Si       2.31920730      -0.41884848       0.51679170       0.00000000
Si       0.11100006       0.71345313       3.12710189       0.00000000
Si       1.25237520      -0.74565846      -3.14994697       0.00000000
Si      -2.82471858      -1.39473351      -1.93592914       0.00000000
Si       0.52347915       3.40946442      -1.35883061       0.00000000
Si       2.37517974      -0.12424383       2.86420994       0.00000000
Si      -2.08093347       0.61781454      -3.04933142       0.00000000
