10
Lattice="16.28999089631971 0.0 0.0 0.0 16.28999089631971 0.0 0.0 0.0 34.71893929493243" Properties=species:S:1:pos:R:3:initial_magmoms:R:1 pbc="T T T"
Si       0.18407700      -1.88561637       1.41642936       0.00000000
Si       2.04991731      -0.22372686      -1.25474317       0.00000000
Si      -0.85301771       1.77863994       1.40351391       0.00000000
Si      -0.87120549      -2.75294484      -1.28967044       0.00000000
Si       0.68707962      -1.57051890      -2.70228071       0.00000000
Si      -2.12599880      -2.54311335       0.92616294       0.00000000
Si      -1.10843839       3.02893002      -1.30126657       0.00000000
Si      -2.10565259       1.32118416      -2.66311773       0.00000000
Si      -3.20428277       1.40871033       1.09298754       0.00000000
Si       3.49044201      -1.31325093       0.39350468       0.00000000
