10
Lattice="16.28999089631971 0.0 0.0 0.0 16.28999089631971 0.0 0.0 0.0 34.71893929493243" Properties=species:S:1:pos:R:3:initial_magmoms:R:1 pbc="T T T"
Si       1.35611222      -1.35708245      -1.36438564       0.00000000
Si      -1.35871632       1.36172573      -1.36362182       0.00000000
Si       1.36109533       1.36380434       1.38195343       0.00000000
Si      -1.36677987      -1.35183707       1.38861947       0.00000000
Si       2.71224332      -2.71372994      -0.00617997       0.00000000
Si       2.71383974       2.71586456      -0.00517312       0.00000000
Si      -2.71573848      -2.71614086      -0.00447875       0.00000000
Si       2.71333475       0.00152856      -2.72089007       0.00000000
Si      -0.00131496      -2.71364849      -2.72116783       0.00000000
Si      -2.71925712       2.71803113      -0.00590222       0.00000000
