10
Lattice="16.28999089631971 0.0 0.0 0.0 16.28999089631971 0.0 0.0 0.0 34.71893929493243" Properties=species:S:1:pos:R:3:initial_magmoms:R:1 pbc="T T T"
Si       1.36718712       1.34509788      -1.37511380       0.00000000
Si      -1.34713413      -1.37067318      -1.38174512       0.00000000
Si       1.34434854      -1.35221661       1.40452076       0.00000000
Si      -1.35679410       1.52313129       1.48131909       0.00000000
Si      -2.69180847       2.70242955      -0.03492727       0.00000000
Si      -2.70417258      -2.69970097      -0.02680304       0.00000000
Si      -0.07900650      -2.65917634       2.74595716       0.00000000
Si       2.52650474       0.08865018       2.87827111       0.00000000
Si       2.72486481       2.70213633       0.01701229       0.00000000
Si       0.01238040       2.70179424      -2.73890921       0.00000000
