10
Lattice="16.28999089631971 0.0 0.0 0.0 16.28999089631971 0.0 0.0 0.0 34.71893929493243" Properties=species:S:1:pos:R:3:initial_magmoms:R:1 pbc="T T T"
Si       0.62284815       0.84099406       2.06893747       0.00000000
Si       1.22088663      -1.71344803      -0.99487176       0.00000000
Si      -2.28620376      -0.25438627       0.49380775       0.00000000
Si       0.74186289       1.67924488      -1.50204631       0.00000000
Si      -0.07221357      -3.28544932       0.46082474       0.00000000
Si       1.31448897       0.14614736      -3.14098947       0.00000000
Si       2.46974319       2.08168933       1.33286082       0.00000000
Si      -2.36563380      -2.64399799       0.88422244       0.00000000
Si      -2.83564917       1.72928776       1.67060685       0.00000000
Si       2.26747026      -0.62747614       2.91854511       0.00000000
