10
Lattice="16.28999089631971 0.0 0.0 0.0 16.28999089631971 0.0 0.0 0.0 34.71893929493243" Properties=species:S:1:pos:R:3:initial_magmoms:R:1 pbc="T T T"
Si      -0.62284815      -0.84099406      -2.06893747       0.00000000
Si       1.84689504       1.24069527      -0.73607664       0.00000000
Si       1.64462211      -1.46847019       0.84960764       0.00000000
Si      -1.93916160       0.46341792       1.29960006       0.00000000
Si       3.06337590      -0.79987158      -1.02698680       0.00000000
Si      -2.90905191      -1.09538032      -1.57512972       0.00000000
Si       0.57756195      -3.49732358       0.30195078       0.00000000
Si      -3.45849732       0.88829370      -0.39833061       0.00000000
Si       0.11901474       0.83825082      -3.57098378       0.00000000
Si       2.92949979       2.17124523       1.10434064       0.00000000
