10
Lattice="16.28999089631971 0.0 0.0 0.0 16.28999089631971 0.0 0.0 0.0 34.71893929493243" Properties=species:S:1:pos:R:3:initial_magmoms:R:1 pbc="T T T"
Si      -1.85885190      -0.02798622      -1.39782000       0.00000000
Si      -0.51968358       1.62093645       1.62901354       0.00000000
Si       0.58246524      -2.03149332       1.06750382       0.00000000
Si       1.70165340       0.88712082      -1.47979146       0.00000000
Si      -1.54862514      -2.04755526      -2.48816889       0.00000000
Si       0.45550098      -1.33050204       3.32930511       0.00000000
Si       0.06832026       3.59816778       0.50002244       0.00000000
Si       0.92582586       0.95876424       3.40065257       0.00000000
Si       2.16616275       3.01791798      -0.45839441       0.00000000
Si      -1.57881051       1.50449553      -3.14397530       0.00000000
