10
Lattice="16.28999089631971 0.0 0.0 0.0 16.28999089631971 0.0 0.0 0.0 34.71893929493243" Properties=species:S:1:pos:R:3:initial_magmoms:R:1 pbc="T T T"
Si       1.69404597       1.04967873      -1.22541055       0.00000000
Si       1.24181928      -1.34949618       1.49848762       0.00000000
Si      -1.06591986      -1.67785371      -1.32307498       0.00000000
Si      -1.46883672       1.36603053       1.46026899       0.00000000
Si       3.30388893      -0.70141482      -0.92764128       0.00000000
Si       2.46457926      -2.74667319       0.01461321       0.00000000
Si      -2.80429092      -2.59195077       0.07043435       0.00000000
Si       2.67970500       2.76416865       0.01483888       0.00000000
Si       2.60255556       0.01376505       2.85814453       0.00000000
Si       0.56420415      -3.66358842      -1.31321479       0.00000000
