10
Lattice="16.28999089631971 0.0 0.0 0.0 16.28999089631971 0.0 0.0 0.0 34.71893929493243" Properties=species:S:1:pos:R:3:initial_magmoms:R:1 pbc="T T T"
Si      -1.35099486      -1.34524449       1.39513622       0.00000000
Si       1.36414482       1.37129220       1.39308780       0.00000000
Si       1.27788764      -1.48998114      -1.47461833       0.00000000
Si      -1.48807521       1.32164028      -1.44780488       0.00000000
Si      -2.70278793      -2.69526195       0.03460091       0.00000000
Si       2.73162842      -2.69757513       0.02338322       0.00000000
Si      -2.71083519       2.71881729       0.03606953       0.00000000
Si       2.71392119       2.71819827       0.03183381       0.00000000
Si       0.00643455      -2.70474273       2.75323773       0.00000000
Si      -2.70744687       0.01037673       2.75382795       0.00000000
