10
Lattice="16.28999089631971 0.0 0.0 0.0 16.28999089631971 0.0 0.0 0.0 34.71893929493243" Properties=species:S:1:pos:R:3:initial_magmoms:R:1 pbc="T T T"
Si      -1.22275998       1.39717701       1.48387441       0.00000000
Si       0.83930967       2.04525837      -0.94225449       0.00000000
Si       1.48807521      -1.32164028       1.44780488       0.00000000
Si      -1.90037511      -0.91691523      -1.32782800       0.00000000
Si       0.25545978      -0.01896156      -3.35944259       0.00000000
Si      -2.46457926       2.74667319      -0.01461321       0.00000000
Si      -2.64157011      -2.74001058       0.07227793       0.00000000
Si      -2.57709429       0.04699665       2.84311470       0.00000000
Si       0.13708035      -2.66688477       2.84294110       0.00000000
Si      -3.53049912       1.06881948      -1.33768819       0.00000000
