10
Lattice="16.28999089631971 0.0 0.0 0.0 16.28999089631971 0.0 0.0 0.0 34.71893929493243" Properties=species:S:1:pos:R:3:initial_magmoms:R:1 pbc="T T T"
Si      -0.79967610      -1.69365501       1.41149927       0.00000000
Si      -0.96269013       0.36729063      -2.16247034       0.00000000
Si      -0.36484713       1.98135270       1.31414731       0.00000000
Si       2.21594240      -0.50681448      -0.86009276       0.00000000
Si      -0.86286501      -3.38178771      -0.22508301       0.00000000
Si      -0.32205330       3.68724150      -0.30476302       0.00000000
Si      -1.10512989       2.71169856      -2.30440145       0.00000000
Si       1.40212917       2.04516063       2.92205172       0.00000000
Si       3.75949484       0.94045428       0.09131086       0.00000000
Si       0.30737601      -0.89575452      -3.77665889       0.00000000
