10
Lattice="16.28999089631971 0.0 0.0 0.0 16.28999089631971 0.0 0.0 0.0 34.71893929493243" Properties=species:S:1:pos:R:3:initial_magmoms:R:1 pbc="T T T"
Si      -0.92105289      -2.17769607       0.01534578       0.00000000
Si      -1.03586481       1.14666939      -1.84555569       0.00000000
Si       2.17977209       0.89132364      -0.68424124       0.00000000
Si      -0.33720300      -0.11347614       2.43253389       0.00000000
Si      -1.94704596       1.63761741       2.13476461       0.00000000
Si       2.20749767      -0.46121877      -2.64311961       0.00000000
Si       0.04175127      -0.03502350      -3.63479722       0.00000000
Si       0.96860081      -3.71154618      -0.40343430       0.00000000
Si       1.61437714       0.61942725       3.57048178       0.00000000
Si      -3.02878341      -2.33798967      -1.15471785       0.00000000
