10
Lattice="16.28999089631971 0.0 0.0 0.0 16.28999089631971 0.0 0.0 0.0 34.71893929493243" Properties=species:S:1:pos:R:3:initial_magmoms:R:1 pbc="T T T"
Si       1.14204303       0.59004009      -1.90652218       0.00000000
Si      -2.22415515       0.72314568       0.17255322       0.00000000
Si       0.14243976      -2.34440793       0.14193110       0.00000000
Si       0.78307659       0.97554294       1.99963843       0.00000000
Si      -2.57818572      -0.60020505       2.07213161       0.00000000
Si       3.20275639      -0.42340968      -1.69622945       0.00000000
Si       2.20910319       2.61889347      -1.35886532       0.00000000
Si       1.10512989      -2.71169856       2.30440145       0.00000000
Si       0.74028276      -0.73034586       3.61854875       0.00000000
Si      -0.76636305       2.73120976       2.52167269       0.00000000
