10
Lattice="16.28999089631971 0.0 0.0 0.0 16.28999089631971 0.0 0.0 0.0 34.71893929493243" Properties=species:S:1:pos:R:3:initial_magmoms:R:1 pbc="T T T"
Si       1.48861278       0.74371995      -1.62512502       0.00000000
Si      -0.44685099      -2.18997873      -0.69785107       0.00000000
Si      -2.04597513       1.19162979      -0.45634599       0.00000000
Si       0.46744155      -0.05779692       2.39168491       0.00000000
Si       0.38270097       0.02938716      -3.61653505       0.00000000
Si      -3.30600011       0.38167470       1.57158838       0.00000000
Si       0.11976408      -2.27395368      -3.00680070       0.00000000
Si       1.99115928       1.88900469       2.63773817       0.00000000
Si      -2.70578366      -2.55169818      -1.05639376       0.00000000
Si       1.73675835       3.08961027      -1.54582692       0.00000000
