10
Lattice="16.28999089631971 0.0 0.0 0.0 16.28999089631971 0.0 0.0 0.0 34.71893929493243" Properties=species:S:1:pos:R:3:initial_magmoms:R:1 pbc="T T T"
Si      -1.23559650       1.35397593       1.47338234       0.00000000
Si       1.06914528       1.65871296      -1.37859407       0.00000000
Si       1.46660499      -1.34760654       1.46348743       0.00000000
Si      -1.46476422      -1.40784696      -1.64339556       0.00000000
Si       2.00467998      -0.08806374      -2.71832924       0.00000000
Si       0.48096225      -2.03486535      -2.96438250       0.00000000
Si      -2.64670309       2.73557970       0.18943705       0.00000000
Si      -2.58537287       0.00706986       2.83463633       0.00000000
Si       2.65414599      -2.77783596      -0.00745069       0.00000000
Si       2.73069270       2.76195321      -0.05087369       0.00000000
