10
Lattice="16.28999089631971 0.0 0.0 0.0 16.28999089631971 0.0 0.0 0.0 34.71893929493243" Properties=species:S:1:pos:R:3:initial_magmoms:R:1 pbc="T T T"
Si      -1.34977637      -1.34690607       1.36125399       0.00000000
Si       1.23559650      -1.35397593      -1.47338234       0.00000000
Si      -1.41110659       1.38160377      -1.28394528       0.00000000
Si       1.36515087       1.36542780       1.36222612       0.00000000
Si       2.30474178       0.30473703      -2.85197640       0.00000000
Si       2.70220149      -2.70158247      -0.00989490       0.00000000
Si      -2.70838259       0.00733050       2.72209829       0.00000000
Si       0.00922014      -2.71002069       2.72213301       0.00000000
Si      -2.71392119      -2.71819827      -0.03183381       0.00000000
Si       2.72202642       0.00666261       2.72123032       0.00000000
