10
Lattice="16.28999089631971 0.0 0.0 0.0 16.28999089631971 0.0 0.0 0.0 34.71893929493243" Properties=species:S:1:pos:R:3:initial_magmoms:R:1 pbc="T T T"
Si       0.67825044       0.22436217       2.29717990       0.00000000
Si      -2.19713723       0.95874795      -0.27167585       0.00000000
Si      -0.89079422      -2.23617717      -0.38017260       0.00000000
Si       2.25437310       1.01336832      -0.92324655       0.00000000
Si      -0.82206671       3.11859018       0.27122451       0.00000000
Si       1.54401507       2.95373538       0.69483052       0.00000000
Si      -1.14621490      -0.98588709      -3.08495308       0.00000000
Si       1.31289255      -1.95180264       2.64450837       0.00000000
Si      -1.35206837       0.75002418       3.33163128       0.00000000
Si      -0.66715369      -3.00446244       2.00515874       0.00000000
