10
Lattice="16.28999089631971 0.0 0.0 0.0 16.28999089631971 0.0 0.0 0.0 34.71893929493243" Properties=species:S:1:pos:R:3:initial_magmoms:R:1 pbc="T T T"
Si       1.27638666      -1.39988115      -1.27217903       0.00000000
Si      -1.31650404       1.29407990      -1.38660230       0.00000000
Si       1.34646624       1.34453492       1.31612976       0.00000000
Si      -1.36936672      -1.36847403       1.31630335       0.00000000
Si      -0.42619527      -2.32916049      -2.47216345       0.00000000
Si      -2.02279446      -0.54594306      -2.72487699       0.00000000
Si       2.23513461       0.17738737      -2.66876372       0.00000000
Si      -0.00822645       2.69930906       2.67062049       0.00000000
Si       2.70767493      -0.01547371       2.67162734       0.00000000
Si      -2.72316570      -0.01569996       2.67228700       0.00000000
