10
Lattice="16.28999089631971 0.0 0.0 0.0 16.28999089631971 0.0 0.0 0.0 34.71893929493243" Properties=species:S:1:pos:R:3:initial_magmoms:R:1 pbc="T T T"
Si       1.35694071      -1.35695048      -1.35855285       0.00000000
Si      -1.35778616       1.35848826      -1.35747657       0.00000000
Si       1.35721764       1.33952670       1.38309916       0.00000000
Si      -1.35274441      -1.35206023       1.38712656       0.00000000
Si       2.71410948       0.00078192      -2.71540448       0.00000000
Si       2.71332756      -2.71625066       0.00114573       0.00000000
Si      -2.71383974      -2.71586456       0.00517312       0.00000000
Si      -0.00050499      -2.71433601      -2.71571695       0.00000000
Si      -0.00100998       2.71596654      -2.71571695       0.00000000
Si      -2.71551071       0.00123804      -2.71627245       0.00000000
