10
Lattice="16.28999089631971 0.0 0.0 0.0 16.28999089631971 0.0 0.0 0.0 34.71893929493243" Properties=species:S:1:pos:R:3:initial_magmoms:R:1 pbc="T T T"
Si       1.35980286       1.35322659      -1.37240572       0.00000000
Si      -1.35501427      -1.36163223      -1.37341257       0.00000000
Si       1.28280003      -1.32631551       1.50590011       0.00000000
Si      -1.24438414       1.42019478       1.47562518       0.00000000
Si      -2.11210831      -0.35474733       2.93534908       0.00000000
Si       2.30348256       0.47644992       2.83157411       0.00000000
Si      -0.43529161      -2.26380501       2.87629213       0.00000000
Si      -2.70095923      -2.72256399      -0.02492821       0.00000000
Si       0.58527852       2.44165923       2.90069956       0.00000000
Si      -2.71922032       2.71511946       0.02239373       0.00000000
