10
Lattice="16.28999089631971 0.0 0.0 0.0 16.28999089631971 0.0 0.0 0.0 34.71893929493243" Properties=species:S:1:pos:R:3:initial_magmoms:R:1 pbc="T T T"
Si       0.94573224       1.73436374      -1.41399903       0.00000000
Si      -1.82966266      -1.02146445      -1.42507438       0.00000000
Si       1.71820404      -1.96520931      -0.06912545       0.00000000
Si      -1.13300697       1.35298224       2.08254730       0.00000000
Si      -0.69642194      -0.60098697       3.33177015       0.00000000
Si       2.13069942       0.28049751      -2.90799054       0.00000000
Si       2.77423587       2.49106910       0.06461198       0.00000000
Si      -0.58527852      -2.44165923      -2.90069956       0.00000000
Si      -2.69738684      -2.79640656       0.03464952       0.00000000
Si       3.42241497      -1.10081304      -1.49416511       0.00000000
