10
Lattice="16.28999089631971 0.0 0.0 0.0 16.28999089631971 0.0 0.0 0.0 34.71893929493243" Properties=species:S:1:pos:R:3:initial_magmoms:R:1 pbc="T T T"
Si       1.64564186      -1.51244505       0.75395691       0.00000000
Si      -1.16176045       0.46815831       2.01001939       0.00000000
Si       1.46224904       1.83682360      -0.36034807       0.00000000
Si      -1.02711871      -1.43052264      -1.61415383       0.00000000
Si      -2.02077191       1.61178051      -1.27678971       0.00000000
Si      -3.08783207      -0.41707287      -1.82444656       0.00000000
Si       2.59282391      -2.31560721      -1.26557548       0.00000000
Si      -1.23596791       2.82565430       2.13261204       0.00000000
Si       0.22170038       3.71995901       0.47019886       0.00000000
Si       0.63474962      -2.77835724       2.47778793       0.00000000
