10
Lattice="10.86 0.0 0.0 0.0 10.86 0.0 0.0 0.0 10.86" Properties=species:S:1:pos:R:3:initial_magmoms:R:1 pbc="T T T"
Si       1.31280024      -1.23384804       1.20094224       0.00000000
Si      -1.35750000       1.35750000       1.35750000       0.00000000
Si      -1.35750000      -1.35750000      -1.35750000       0.00000000
Si       1.35061476       1.49231604      -1.44029664       0.00000000
Si       2.72913972       0.32232480       2.33994990       0.00000000
Si       2.78664342       2.34722610       0.09431910       0.00000000
Si      -2.71500000       2.71500000       0.00000000       0.00000000
Si      -2.71500000       0.00000000      -2.71500000       0.00000000
Si       0.00000000       2.71500000       2.71500000       0.00000000
Si       0.00000000       2.71500000      -2.71500000       0.00000000
