10
Lattice="16.290000149 0.0 0.0 0.0 16.290000149 0.0 0.0 0.0 29.1751946751" Properties=species:S:1:pos:R:3:initial_magmoms:R:1 pbc="T T T"
Si       1.32831919      -1.36081774       1.37421002       0.00000000
Si      -1.36994014      -1.36912564      -1.32522487       0.00000000
Si      -1.36598167       1.35133696       1.34926523       0.00000000
Si       1.36787131       1.36489024      -1.34436380       0.00000000
Si      -2.69513165       0.01443294      -2.68525574       0.00000000
Si       0.00995319      -2.71742126      -2.66623352       0.00000000
Si       2.68398929       0.00715131       2.71168847       0.00000000
Si      -0.02401309       2.71218728       2.70331519       0.00000000
Si       2.72699490       0.00954594      -2.69855963       0.00000000
Si       2.71254566      -2.71569615       0.03973662       0.00000000
