10
Lattice="16.290000149 0.0 0.0 0.0 16.290000149 0.0 0.0 0.0 29.1751946751" Properties=species:S:1:pos:R:3:initial_magmoms:R:1 pbc="T T T"
Si      -1.33806061       1.15452118       1.55663376       0.00000000
Si      -1.30857571      -1.44650314      -1.37012257       0.00000000
Si       1.42752529      -1.36708939       1.33440047       0.00000000
Si       0.83422720       1.99754498      -1.09078380       0.00000000
H        1.91428679       0.28465146      -1.87940477       0.00000000
Si      -0.91176760       3.54051750      -0.64065810       0.00000000
Si      -2.74414827       2.51858063       0.30196618       0.00000000
Si      -2.70720254      -0.02150280      -2.59466385       0.00000000
Si       0.08408898       2.61395858       2.78217866       0.00000000
Si      -2.63477720      -2.82903546       0.00604510       0.00000000
