10
Lattice="16.290000149 0.0 0.0 0.0 16.290000149 0.0 0.0 0.0 29.1751946751" Properties=species:S:1:pos:R:3:initial_magmoms:R:1 pbc="T T T"
Si       0.43983000      -0.24910668       2.28343833       0.00000000
Si      -1.71843212       1.63054756       0.10567256       0.00000000
Si      -0.04851162      -2.29415330      -0.66735340       0.00000000
Si       1.87010831       0.89614549      -1.27539364       0.00000000
H       -0.92937709       0.16050537      -2.53465339       0.00000000
Si       2.15546024      -2.67675653       0.13747352       0.00000000
Si      -0.32273748       3.36900009      -0.80879475       0.00000000
Si       2.07288623      -1.98474104       2.36759622       0.00000000
Si       3.46419885       1.70939117       0.28568351       0.00000000
Si      -3.77510979       0.61814035      -0.61938938       0.00000000
