10
Lattice="16.290000149 0.0 0.0 0.0 16.290000149 0.0 0.0 0.0 29.1751946751" Properties=species:S:1:pos:R:3:initial_magmoms:R:1 pbc="T T T"
Si       1.42017687       1.43506756       1.17018788       0.00000000
Si       1.44108183      -1.24581034      -1.36359025       0.00000000
Si      -1.29010285       1.41569875      -1.35690913       0.00000000
Si      -1.64061478      -1.05270868       1.43442762       0.00000000
H        0.27207884      -2.65502567       1.68337956       0.00000000
H       -1.10058499       1.41027418       2.80919197       0.00000000
Si      -0.06489936       2.51530634       2.59638810       0.00000000
Si      -2.62337420       2.48528387       0.26531922       0.00000000
Si       0.08195776      -2.65496051      -2.67688246       0.00000000
Si      -3.31796352       0.62628535       1.68542182       0.00000000
