10
Lattice="16.290000149 0.0 0.0 0.0 16.290000149 0.0 0.0 0.0 29.1751946751" Properties=species:S:1:pos:R:3:initial_magmoms:R:1 pbc="T T T"
Si      -1.41108868      -1.28499268       1.38094949       0.00000000
Si       1.32271543      -1.39475959      -1.36455303       0.00000000
Si       1.39911553       1.37057545       1.31539283       0.00000000
Si      -1.34879572       1.33343425      -1.40627356       0.00000000
Si       0.00723276       2.72445366       2.62874339       0.00000000
Si      -2.64310139      -2.71764443      -0.04487145       0.00000000
Si       2.58307274      -2.78653485       0.06681120       0.00000000
Si       2.68916951      -0.03554478      -2.74147634       0.00000000
Si      -2.71904537       2.72057663      -0.09554876       0.00000000
Si       2.73906578       2.71937117      -0.05697916       0.00000000
