10
Lattice="16.290000149 0.0 0.0 0.0 16.290000149 0.0 0.0 0.0 29.1751946751" Properties=species:S:1:pos:R:3:initial_magmoms:R:1 pbc="T T T"
Si       1.35428545      -1.36643779       1.33812030       0.00000000
Si      -1.35567010      -1.36796905      -1.33747845       0.00000000
Si       1.37502262       1.33662709      -1.36175221       0.00000000
Si      -1.37881819       1.34579836       1.35652985       0.00000000
Si       2.64702728       0.07159455       2.65033303       0.00000000
Si       0.02855637      -2.72284746      -2.67195185       0.00000000
Si      -2.68398929      -0.00715131      -2.71168847       0.00000000
Si      -2.70800238       2.70503597      -0.00837328       0.00000000
Si      -2.70315937      -2.72173811       0.03862796       0.00000000
Si       0.03186324       2.71955036      -2.70550333       0.00000000
