10
Lattice="16.290000149 0.0 0.0 0.0 16.290000149 0.0 0.0 0.0 29.1751946751" Properties=species:S:1:pos:R:3:initial_magmoms:R:1 pbc="T T T"
Si       1.38596462      -1.46559991       1.14976525       0.00000000
Si      -1.23022532      -1.36331565      -1.44370533       0.00000000
Si       1.41338069       1.29570172      -1.38512154       0.00000000
Si      -1.21794402       1.28863186       1.61738527       0.00000000
H        1.67130026       1.50983378       2.02688830       0.00000000
Si       2.26687895       0.21248676       2.50912509       0.00000000
Si      -2.49775061       2.63221479       0.10438885       0.00000000
Si      -2.54238521      -2.69795471      -0.07708086       0.00000000
Si       0.06591260       2.63016225      -2.76411629       0.00000000
Si      -2.69691215      -0.06904354      -2.71734846       0.00000000
