10
Lattice="16.290000149 0.0 0.0 0.0 16.290000149 0.0 0.0 0.0 29.1751946751" Properties=species:S:1:pos:R:3:initial_magmoms:R:1 pbc="T T T"
Si      -1.39488013       1.28319589      -1.35988500       0.00000000
Si       1.43845588      -1.37122705      -1.23218517       0.00000000
Si      -1.37660275      -1.31887099       1.35588800       0.00000000
Si       0.87814504       1.88884181       1.06927088       0.00000000
Si      -2.43418214       0.14506245       2.83614985       0.00000000
Si       0.05527197      -2.72134226      -2.57307712       0.00000000
Si      -2.57860928       2.73391815       0.05239865       0.00000000
Si      -0.01107720       2.61843833      -2.70060190       0.00000000
Si       2.77962789      -0.03841182      -2.60546159       0.00000000
Si      -2.74460439      -0.05737338      -2.67530700       0.00000000
