10
Lattice="16.290000149 0.0 0.0 0.0 16.290000149 0.0 0.0 0.0 29.1751946751" Properties=species:S:1:pos:R:3:initial_magmoms:R:1 pbc="T T T"
Si       1.53723844      -1.27195579      -1.19875040       0.00000000
Si       1.39514077       1.32193351       1.36508110       0.00000000
Si      -1.21712365      -1.43399242       1.44300513       0.00000000
Si      -1.47198070       1.20989089      -1.45417923       0.00000000
H        0.35552925      -1.80491573      -2.25515502       0.00000000
Si      -2.67138083       2.68280012      -0.02514902       0.00000000
Si       2.85442472       2.50090598      -0.05175680       0.00000000
Si      -2.64867257      -0.06208119       2.72736138       0.00000000
Si      -0.14108769       2.54257580      -2.85199198       0.00000000
Si       0.06472017       2.76221388       2.67937402       0.00000000
