10
Lattice="16.290000149 0.0 0.0 0.0 16.290000149 0.0 0.0 0.0 29.1751946751" Properties=species:S:1:pos:R:3:initial_magmoms:R:1 pbc="T T T"
Si      -1.38969991      -1.34516305      -1.27585460       0.00000000
Si       1.33000244      -1.40872663       1.31122077       0.00000000
Si      -1.42504921       1.36032904       1.27031715       0.00000000
Si       1.29533194       1.31429350      -1.46942910       0.00000000
Si       2.62658496       2.67428045      -0.09053063       0.00000000
Si       2.66488438      -0.03179808       2.65651818       0.00000000
Si      -0.06884154       2.70993926       2.62506732       0.00000000
Si      -0.13206303      -2.74579356      -2.64143752       0.00000000
Si      -2.74978461      -0.02643867       2.65342561       0.00000000
Si       2.68042667      -2.73525393      -0.09566546       0.00000000
