10
Lattice="16.290000149 0.0 0.0 0.0 16.290000149 0.0 0.0 0.0 29.1751946751" Properties=species:S:1:pos:R:3:initial_magmoms:R:1 pbc="T T T"
Si       1.71843212      -1.63054756      -0.10567256       0.00000000
Si      -2.05667768      -1.01240722      -0.72506194       0.00000000
Si       1.39569463       1.73845253      -0.91446730       0.00000000
Si      -1.00607041       1.23931063       1.84328880       0.00000000
H        0.78905503      -1.47004219      -2.64032594       0.00000000
H       -0.60929488       0.57257722      -3.09122858       0.00000000
Si      -2.36164277       2.64699470       0.52909216       0.00000000
Si       2.15826212      -1.87965425       2.17776578       0.00000000
Si      -3.46884476       0.93846691      -0.71972288       0.00000000
Si       3.58854042      -0.73440208      -1.38106619       0.00000000
