10
Lattice="16.290000149 0.0 0.0 0.0 16.290000149 0.0 0.0 0.0 29.1751946751" Properties=species:S:1:pos:R:3:initial_magmoms:R:1 pbc="T T T"
Si       1.42504921      -1.36032904      -1.27031715       0.00000000
Si       1.35620767       1.34961022       1.35475016       0.00000000
Si      -1.32473539      -1.38676771       1.38310845       0.00000000
Si      -1.33947784       1.33651306      -1.42182394       0.00000000
Si       0.03534930      -2.70549209      -2.54617175       0.00000000
Si      -2.68581377       2.61583193       0.03880301       0.00000000
Si       2.69705387       2.70260876      -0.03077983       0.00000000
Si       2.70158249      -0.03101616       2.70938363       0.00000000
Si       0.01225008       2.68047065       2.74173892       0.00000000
Si      -2.71142165      -0.06975378      -2.73411836       0.00000000
