10
Lattice="16.290000149 0.0 0.0 0.0 16.290000149 0.0 0.0 0.0 29.1751946751" Properties=species:S:1:pos:R:3:initial_magmoms:R:1 pbc="T T T"
Si      -1.34675621      -1.34768800       1.36860838       0.00000000
Si       1.35182566      -1.36932112      -1.35868882       0.00000000
Si      -1.36558094       1.34801380      -1.37208023       0.00000000
Si       1.33066495       1.34574949       1.41458849       0.00000000
Si      -2.64716966       2.69317685       0.08431631       0.00000000
Si       0.04689891       2.73852821      -2.62820073       0.00000000
Si       2.70542693       0.02834460      -2.67889847       0.00000000
Si      -2.71099811      -2.67778280      -0.01050307       0.00000000
Si       2.71834490       2.70497081       0.11057399       0.00000000
Si       0.00413766      -2.70686045       2.72843503       0.00000000
