10
Lattice="16.290000149 0.0 0.0 0.0 16.290000149 0.0 0.0 0.0 29.1751946751" Properties=species:S:1:pos:R:3:initial_magmoms:R:1 pbc="T T T"
H       -1.11089493       0.99588916       0.27582229       0.00000000
H        1.57384045      -1.48625074      -0.71776814       0.00000000
Si       1.49134788       1.19166238      -1.38748473       0.00000000
Si       1.29456468       0.16260678       2.02230779       0.00000000
Si      -1.31540383      -1.70745266      -1.12727117       0.00000000
H       -0.02419228      -2.74631484       1.17260942       0.00000000
H       -2.31616272      -0.83597023       2.23505331       0.00000000
Si       2.16941914      -2.78359776      -0.23553135       0.00000000
Si       0.05810806       2.40510449      -2.77114752       0.00000000
Si      -2.59521042      -0.36386973      -2.64026759       0.00000000
