10
Lattice="16.290000149 0.0 0.0 0.0 16.290000149 0.0 0.0 0.0 29.1751946751" Properties=species:S:1:pos:R:3:initial_magmoms:R:1 pbc="T T T"
Si      -1.14911290      -0.13233996       2.05842669       0.00000000
Si      -1.52674768       0.99331534      -1.50669458       0.00000000
Si       0.99536788      -1.76985965      -1.26652438       0.00000000
Si       1.52907715       1.83528029       0.42977979       0.00000000
H       -2.05739444      -2.80979697      -0.91073288       0.00000000
H        0.70359769      -2.97826815       1.91847328       0.00000000
Si       2.29571714      -0.48084822      -2.76910525       0.00000000
Si      -2.55968030       2.61305449      -0.18838423       0.00000000
Si      -0.23348457       2.43311026      -2.78188399       0.00000000
Si       0.41220216       0.65146969       3.65223840       0.00000000
