10
Lattice="16.290000149 0.0 0.0 0.0 16.290000149 0.0 0.0 0.0 29.1751946751" Properties=species:S:1:pos:R:3:initial_magmoms:R:1 pbc="T T T"
Si      -1.27824862       1.37347833      -1.38726592       0.00000000
Si       1.30109860       1.32726360       1.42530746       0.00000000
Si      -1.41247985      -1.39051441       1.25612050       0.00000000
Si       1.32972013      -1.31450527      -1.41965914       0.00000000
Si       2.64657116       2.65738772       0.07765853       0.00000000
Si      -0.04689891      -2.73852821       2.62820073       0.00000000
Si       2.65852802      -2.71018361      -0.05069774       0.00000000
Si      -0.09541053      -2.67631670      -2.69818940       0.00000000
Si      -2.71174462       2.68047065      -0.03608096       0.00000000
Si      -2.69406857      -0.04535136       2.71251704       0.00000000
