10
Lattice="16.290000149 0.0 0.0 0.0 16.290000149 0.0 0.0 0.0 29.1751946751" Properties=species:S:1:pos:R:3:initial_magmoms:R:1 pbc="T T T"
Si      -0.34500591       0.88195690       2.13544920       0.00000000
Si      -1.85521925      -0.93151108      -1.10658596       0.00000000
Si       1.05508702       1.76267576      -1.18194549       0.00000000
Si       1.60153507      -1.77658742      -0.08971372       0.00000000
Si       2.13817655       0.34235064      -2.67979998       0.00000000
Si      -0.67149010      -2.38223333      -2.51886961       0.00000000
Si       1.27575136       2.56911221       2.20829966       0.00000000
Si       2.22897701      -2.18017217       2.05845586       0.00000000
Si       3.43308495      -0.95184100      -1.25342471       0.00000000
Si      -3.15709977      -2.16971399       0.39243554       0.00000000
