10
Lattice="16.290000149 0.0 0.0 0.0 16.290000149 0.0 0.0 0.0 29.1751946751" Properties=species:S:1:pos:R:3:initial_magmoms:R:1 pbc="T T T"
Si      -0.56079955       1.03614175       2.01008339       0.00000000
Si      -1.62075727      -1.68715532      -0.07285046       0.00000000
Si       2.19431189      -0.72277102      -0.46858280       0.00000000
Si       0.05027094       2.14329161      -0.98332076       0.00000000
Si       0.67929301       2.82451498       1.16455707       0.00000000
Si       1.90671194       0.16301403      -2.70987961       0.00000000
Si       1.92510335      -2.75289600       0.72780441       0.00000000
Si      -3.44370603      -0.23144832       0.08942197       0.00000000
Si      -0.22066434      -0.80643646      -3.39024515       0.00000000
Si      -2.79298569       1.53916066       1.67713607       0.00000000
