10
Lattice="16.290000149 0.0 0.0 0.0 16.290000149 0.0 0.0 0.0 29.1751946751" Properties=species:S:1:pos:R:3:initial_magmoms:R:1 pbc="T T T"
Si      -1.26207428       1.42925203       1.32698209       0.00000000
Si       1.63446694      -1.18182322       1.21247383       0.00000000
Si       0.68003583       1.76373461      -1.50686963       0.00000000
Si      -1.33814858      -1.97982146      -0.47400939       0.00000000
Si       0.29934993      -2.58689764       2.56896633       0.00000000
Si       0.16114394       0.85584403      -3.60144438       0.00000000
Si      -2.58436617       0.10458180       2.69295508       0.00000000
Si      -0.40772730      -2.79606612      -2.47005951       0.00000000
Si       0.24315106       2.81491203       2.49573368       0.00000000
Si      -2.40286299       2.93107602      -0.05552040       0.00000000
