10
Lattice="16.290000149 0.0 0.0 0.0 16.290000149 0.0 0.0 0.0 29.1751946751" Properties=species:S:1:pos:R:3:initial_magmoms:R:1 pbc="T T T"
Si      -1.34972425      -1.34056927      -1.31542200       0.00000000
Si       1.39488013      -1.28319589       1.35988500       0.00000000
Si       1.38380293       1.33524244      -1.34071690       0.00000000
Si      -1.18372915       1.45072225       1.41228365       0.00000000
Si       2.27302517       0.60564592       2.42915588       0.00000000
Si       0.67149010       2.38223333       2.51886961       0.00000000
Si       0.08759133      -2.67823892      -2.59411243       0.00000000
Si      -2.66119958       0.08483832      -2.61205518       0.00000000
Si       0.01827738      -2.60206688       2.71577300       0.00000000
Si      -2.72538219      -2.59162499       0.11366656       0.00000000
