10
Lattice="16.290000149 0.0 0.0 0.0 16.290000149 0.0 0.0 0.0 29.1751946751" Properties=species:S:1:pos:R:3:initial_magmoms:R:1 pbc="T T T"
Si      -1.35505108      -1.35503479       1.33388990       0.00000000
Si      -1.37466424       1.34659820      -1.33639897       0.00000000
Si       1.30715848       1.31416970       1.44589347       0.00000000
Si       1.35285193      -1.38502468      -1.33724505       0.00000000
Si       0.03973131      -2.80534980       2.52791392       0.00000000
Si       2.67361256       2.67338450       0.06897016       0.00000000
Si      -0.01018125       2.69408909      -2.68668533       0.00000000
Si       2.71262711      -0.02155167      -2.67968328       0.00000000
Si      -2.72458397      -0.02334357      -2.68776481       0.00000000
Si      -2.72481203       2.69636969       0.03684827       0.00000000
