10
Lattice="16.290000149 0.0 0.0 0.0 16.290000149 0.0 0.0 0.0 29.1751946751" Properties=species:S:1:pos:R:3:initial_magmoms:R:1 pbc="T T T"
Si       2.23218614      -0.50301891       0.33294732       0.00000000
Si      -1.07909848       0.69168155       2.04521032       0.00000000
Si      -0.03015279       2.06537654      -1.29791689       0.00000000
Si      -0.65072035      -1.77060899      -1.58771409       0.00000000
Si      -2.32764554       1.98573962      -0.97100883       0.00000000
H       -0.64914022      -2.92281699       1.53572390       0.00000000
Si       2.79298569      -1.53916066      -1.67713607       0.00000000
Si       3.47227869       1.28535432      -0.51257900       0.00000000
Si      -3.26516763       1.45085257       1.16216470       0.00000000
Si       1.17222841      -3.22631598      -1.74998653       0.00000000
