10
Lattice="16.290000149 0.0 0.0 0.0 16.290000149 0.0 0.0 0.0 29.1751946751" Properties=species:S:1:pos:R:3:initial_magmoms:R:1 pbc="T T T"
Si       1.36707310       1.35026182      -1.35067731       0.00000000
Si      -1.34350147      -1.36922338      -1.36386450       0.00000000
Si       1.35164647      -1.31883841       1.40796572       0.00000000
Si      -1.36280512       1.37362168       1.34979038       0.00000000
Si       2.67182066       2.64536570       0.12504488       0.00000000
Si      -2.69923673      -2.68397300       0.03559374       0.00000000
Si       0.08314416      -2.74532115      -2.65753931       0.00000000
Si      -0.00425169       2.76234420      -2.65512068       0.00000000
Si       2.77044033      -2.64955223       0.10558503       0.00000000
Si      -2.71697654      -0.01718595      -2.72520242       0.00000000
