10
Lattice="16.290000149 0.0 0.0 0.0 16.290000149 0.0 0.0 0.0 29.1751946751" Properties=species:S:1:pos:R:3:initial_magmoms:R:1 pbc="T T T"
Si       1.45928395       1.17897247      -1.41683790       0.00000000
Si      -1.39514077      -1.32193351      -1.36508110       0.00000000
Si      -1.33042060       1.44028036       1.31429292       0.00000000
Si       1.38798946      -1.36029646       1.35665239       0.00000000
Si       0.14209767      -2.59388930      -2.56383150       0.00000000
Si       0.05735709       2.35032122      -2.87781495       0.00000000
H       -0.84365911       3.09202122      -1.89951232       0.00000000
Si      -2.67186953       0.02225214       2.67457470       0.00000000
Si       2.67966267       2.66781332      -0.01759848       0.00000000
Si      -2.61226442      -2.75592594       0.07792403       0.00000000
