10
Lattice="16.290000149 0.0 0.0 0.0 16.290000149 0.0 0.0 0.0 29.1751946751" Properties=species:S:1:pos:R:3:initial_magmoms:R:1 pbc="T T T"
Si      -1.35529543      -1.34389243       1.37587301       0.00000000
Si       1.33480261       1.35135325       1.39425338       0.00000000
Si      -1.37645614       1.34728075      -1.35944737       0.00000000
Si       1.36280512      -1.37362168      -1.34979038       0.00000000
Si       2.71445159      -2.69246009       0.05817534       0.00000000
Si       2.69869916       2.71292033       0.06468141       0.00000000
Si      -2.71523351      -2.69855255       0.02226067       0.00000000
Si      -0.02285487       2.74494648      -2.67965702       0.00000000
Si       2.72987822      -0.02335986      -2.70046769       0.00000000
Si      -2.72828181       2.71660187      -0.00075856       0.00000000
