10
Lattice="16.290000149 0.0 0.0 0.0 16.290000149 0.0 0.0 0.0 29.1751946751" Properties=species:S:1:pos:R:3:initial_magmoms:R:1 pbc="T T T"
Si      -0.71744419      -0.08071695      -1.32572085       0.00000000
H       -2.11481669       0.75414556       0.30441398       0.00000000
H        1.14937354       1.62970048      -1.12613334       0.00000000
H        1.79981696       1.20633967      -1.08423776       0.00000000
Si      -1.51488856       0.84784564       1.70421065       0.00000000
Si       0.25518285      -2.68568345       1.44224657       0.00000000
Si       2.24383349      -2.08230185       0.27016230       0.00000000
Si       0.89181235      -0.86973940      -2.84945374       0.00000000
Si       0.38341773       2.34688403       2.02362068       0.00000000
Si      -1.03731463      -1.18183951       2.76280341       0.00000000
