10
Lattice="16.290000149 0.0 0.0 0.0 16.290000149 0.0 0.0 0.0 29.1751946751" Properties=species:S:1:pos:R:3:initial_magmoms:R:1 pbc="T T T"
H       -1.02848545       1.13041524       0.02546995       0.00000000
Si      -0.83502541      -1.93131961       1.01801007       0.00000000
Si       0.28184958      -0.74750901      -2.20444853       0.00000000
Si       1.86595599       0.88714201       1.12896333       0.00000000
Si       2.54297980      -1.27768336      -2.08812703       0.00000000
Si      -2.39634047      -2.71512926      -0.57580164       0.00000000
Si       0.93553471       1.70338667       3.12501345       0.00000000
H        0.14159268       3.29289973      -1.70082632       0.00000000
Si      -2.87841045       0.52448588       2.38769793       0.00000000
Si       0.93630034      -3.09015764       2.04806949       0.00000000
