10
Lattice="16.290000149 0.0 0.0 0.0 16.290000149 0.0 0.0 0.0 29.1751946751" Properties=species:S:1:pos:R:3:initial_magmoms:R:1 pbc="T T T"
Si       1.18170919       0.53295993       1.05640462       0.00000000
Si      -1.30201084      -0.55146537      -0.91058700       0.00000000
Si      -0.07916940      -2.40570722      -1.57659835       0.00000000
Si      -0.35552925       1.80491573       2.25515502       0.00000000
Si       2.85244093       1.31649265      -0.38960555       0.00000000
Si      -3.08715051      -1.14192901       0.52810020       0.00000000
Si       2.32249790      -0.96886405       2.43890711       0.00000000
Si      -2.32153679       0.78139873      -2.53421576       0.00000000
Si      -1.82750996       3.01480662       0.80097579       0.00000000
H       -0.34194339       0.69871069      -3.59420893       0.00000000
