10
Lattice="16.290000149 0.0 0.0 0.0 16.290000149 0.0 0.0 0.0 29.1751946751" Properties=species:S:1:pos:R:3:initial_magmoms:R:1 pbc="T T T"
H       -0.65044342       0.42336081      -0.04189558       0.00000000
Si       1.98175997       0.62301106       1.08324580       0.00000000
H       -1.79981696      -1.20633967       1.08423776       0.00000000
Si       0.75132739      -0.55221472      -2.49975986       0.00000000
Si       0.20233809       2.16904610       1.71462619       0.00000000
Si      -2.51726114      -1.28705662      -0.24148309       0.00000000
Si      -0.90800461      -2.07607907      -1.76521598       0.00000000
Si       2.61074945       0.29294307      -1.24712287       0.00000000
Si       1.22150566      -1.25040412       2.36377427       0.00000000
Si      -0.73503739       1.24796062      -2.61648981       0.00000000
