10
Lattice="16.290000149 0.0 0.0 0.0 16.290000149 0.0 0.0 0.0 29.1751946751" Properties=species:S:1:pos:R:3:initial_magmoms:R:1 pbc="T T T"
Si      -1.28934862      -1.40646232      -1.31936065       0.00000000
Si       1.41596428      -1.22484511       1.37820702       0.00000000
Si      -1.34462060       1.29955105       1.41995672       0.00000000
Si       1.46434558       1.38106621      -1.21713077       0.00000000
Si       2.08958837       0.64791847       2.67218526       0.00000000
Si       0.43465467       2.29372976       2.57109321       0.00000000
Si      -2.61131472      -0.03069036      -2.65228777       0.00000000
Si       0.11801942       2.73878885      -2.59927644       0.00000000
Si      -2.60843139      -2.73132804       0.12294427       0.00000000
Si       0.11545701      -2.72432333      -2.63177761       0.00000000
