10
Lattice="16.290000149 0.0 0.0 0.0 16.290000149 0.0 0.0 0.0 29.1751946751" Properties=species:S:1:pos:R:3:initial_magmoms:R:1 pbc="T T T"
Si       0.64586593       0.82743427      -1.07636046       0.00000000
H       -1.43839072      -0.91061101      -0.54823108       0.00000000
H       -0.63128638      -1.65586223       1.10398937       0.00000000
Si      -2.24542991       0.95335597       1.63489038       0.00000000
Si       0.55386000      -2.16917642       1.90289372       0.00000000
Si       1.92036296       2.29058579       0.22339447       0.00000000
Si       1.88424803      -0.53812386      -2.49456667       0.00000000
Si      -2.53302986       1.83914102      -0.60640642       0.00000000
Si      -0.93270025       1.91321165      -2.39849275       0.00000000
Si      -2.28240821      -1.84482623      -1.35825119       0.00000000
