10
Lattice="16.290000149 0.0 0.0 0.0 16.290000149 0.0 0.0 0.0 29.1751946751" Properties=species:S:1:pos:R:3:initial_magmoms:R:1 pbc="T T T"
Si      -1.37852497       1.36611199       1.31171675       0.00000000
Si      -1.37867158      -1.33545421      -1.34439297       0.00000000
Si       1.35620767       1.35560494      -1.35766768       0.00000000
Si       1.35456238      -1.35146728       1.36930859       0.00000000
Si      -0.00171045       2.70614369       2.64464387       0.00000000
Si      -0.00772146      -2.68121999      -2.68306760       0.00000000
Si      -2.73204479       0.01474245       2.67346896       0.00000000
Si       2.71474481      -2.70311375       0.01610471       0.00000000
Si       0.00030951       2.72587088      -2.69675077       0.00000000
Si      -2.72857502      -2.70021413       0.01225358       0.00000000
