10
Lattice="16.290000149 0.0 0.0 0.0 16.290000149 0.0 0.0 0.0 29.1751946751" Properties=species:S:1:pos:R:3:initial_magmoms:R:1 pbc="T T T"
Si      -1.37121076       1.35677782       1.33260619       0.00000000
Si      -1.37326330      -1.34742736      -1.34325514       0.00000000
Si       1.34990344       1.36475992      -1.35664655       0.00000000
Si       1.36888129      -1.34447887       1.36408623       0.00000000
Si      -0.00346977       2.71495658       2.66121538       0.00000000
Si      -0.01334151      -2.70486330      -2.68283420       0.00000000
Si       2.71902908      -2.69425037      -0.00916101       0.00000000
Si       2.72085356       0.01899414      -2.69532118       0.00000000
Si      -2.70322778       0.02254536      -2.71588970       0.00000000
Si      -2.71767701      -2.70269673       0.02240655       0.00000000
