10
Lattice="16.290000149 0.0 0.0 0.0 16.290000149 0.0 0.0 0.0 29.1751946751" Properties=species:S:1:pos:R:3:initial_magmoms:R:1 pbc="T T T"
H        1.08005959      -1.71289352      -0.78862097       0.00000000
Si      -0.24931845       0.51316758      -2.29820390       0.00000000
Si       1.94127932       0.85069639       1.06414101       0.00000000
Si      -1.74599480       1.54297252       0.45012570       0.00000000
Si      -0.83422720      -1.99754498       1.09078380       0.00000000
Si       0.70986934       2.05368781       2.65861791       0.00000000
Si      -2.17228781      -0.84302380       2.64741756       0.00000000
Si       1.98107579      -2.45459351      -1.76692360       0.00000000
Si      -2.14630526      -0.78778441      -2.93034284       0.00000000
Si      -0.70674166       3.39632168       1.40323555       0.00000000
