10
Lattice="16.290000149 0.0 0.0 0.0 16.290000149 0.0 0.0 0.0 29.1751946751" Properties=species:S:1:pos:R:3:initial_magmoms:R:1 pbc="T T T"
Si      -1.36881613      -1.34353405       1.34264246       0.00000000
Si      -1.38235312       1.34568433      -1.33599051       0.00000000
Si       1.35006634      -1.36531378      -1.35556707       0.00000000
Si       1.36629118       1.36187659       1.35288295       0.00000000
Si       0.00532683       2.70490565      -2.64000502       0.00000000
Si      -0.00151497      -2.70063767       2.67008464       0.00000000
Si       2.71396289      -0.00374670      -2.68513904       0.00000000
Si      -2.70888041      -2.70692561      -0.02214397       0.00000000
Si      -2.70021413       2.71608059       0.05315720       0.00000000
Si      -2.68698665       0.01884753       2.73406584       0.00000000
