10
Lattice="16.290000149 0.0 0.0 0.0 16.290000149 0.0 0.0 0.0 29.1751946751" Properties=species:S:1:pos:R:3:initial_magmoms:R:1 pbc="T T T"
H        0.65044342      -0.42336081       0.04189558       0.00000000
H       -1.14937354      -1.62970048       1.12613334       0.00000000
Si      -1.86681773      -1.71041744      -0.19958751       0.00000000
Si       0.85278151       1.74568529       1.75652177       0.00000000
Si      -0.08459397       0.82459981      -2.57459423       0.00000000
Si      -2.20894031       0.23864850      -1.57283474       0.00000000
Si       2.63220338       0.19965024       1.12514138       0.00000000
Si       1.40177080      -0.97557553      -2.45786428       0.00000000
Si      -0.25756119      -2.49943988      -1.72332040       0.00000000
Si      -0.37155861       3.06745590       0.24122051       0.00000000
