10
Lattice="16.290000149 0.0 0.0 0.0 16.290000149 0.0 0.0 0.0 29.1751946751" Properties=species:S:1:pos:R:3:initial_magmoms:R:1 pbc="T T T"
Si       1.35563752      -1.35466012       1.30179719       0.00000000
Si       1.37565793       1.25105572      -1.42908856       0.00000000
Si      -1.30860829      -1.43562142      -1.31810612       0.00000000
Si      -1.19672857       1.39683493       1.48122463       0.00000000
Si      -2.56661496       2.63508671       0.03597301       0.00000000
Si       2.72538219       2.59162499      -0.11366656       0.00000000
Si      -2.63779248      -0.07638381      -2.68300925       0.00000000
Si       2.74365957      -0.01044189       2.60210644       0.00000000
Si      -2.55931867      -0.03342708       2.78401378       0.00000000
Si       0.01720224      -2.66655899       2.69351232       0.00000000
