10
Lattice="16.28999089631971 0.0 0.0 0.0 16.28999089631971 0.0 0.0 0.0 34.279985188174585" Properties=species:S:1:pos:R:3:initial_magmoms:R:1 pbc="T T T"
Si      -1.34778573      -1.36422697      -1.36396709       0.00000000
Si       1.37174832       1.34461081      -1.36434417       0.00000000
Si       1.25191908      -1.50266032       1.34346765       0.00000000
Si      -1.30468239       1.39388806       1.45096974       0.00000000
Si      -2.40404562      -0.26774244       2.70033878       0.00000000
Si      -2.70526401       2.70190990       0.01439760       0.00000000
Si      -2.68472232      -2.73811021      -0.00521056       0.00000000
Si       0.01110978       2.70370180      -2.72145526       0.00000000
Si      -2.70396081      -0.01103485      -2.72310071       0.00000000
Si       2.72621295       2.70168184       0.01090104       0.00000000
