10
Lattice="16.28999089631971 0.0 0.0 0.0 16.28999089631971 0.0 0.0 0.0 34.279985188174585" Properties=species:S:1:pos:R:3:initial_magmoms:R:1 pbc="T T T"
Si       1.54748484      -1.70983980      -0.12011714       0.00000000
Si       0.45820512       1.34788184       1.85660504       0.00000000
Si       0.21753666       1.65713120      -1.65726681       0.00000000
Si      -2.00024910      -1.22401594      -0.32956796       0.00000000
Si      -1.74102633       1.90227941       2.36322922       0.00000000
Si       2.05172550      -1.54645110      -2.40659343       0.00000000
Si      -1.75975983      -2.91240018       1.29958924       0.00000000
Si      -1.53723843       3.15729359      -1.21851703       0.00000000
Si       0.43719102      -3.65269923       0.74713269       0.00000000
Si       2.15490636       2.89974869      -1.06041765       0.00000000
