10
Lattice="16.28999089631971 0.0 0.0 0.0 16.28999089631971 0.0 0.0 0.0 34.279985188174585" Properties=species:S:1:pos:R:3:initial_magmoms:R:1 pbc="T T T"
Si       1.99769320      -0.32570749       1.21145535       0.00000000
Si       0.40727606       1.00262702      -2.11624179       0.00000000
Si      -1.58658640       1.32852150       1.19630359       0.00000000
Si      -0.59613320      -2.14111396      -0.93508996       0.00000000
Si       2.39324698      -2.66273605       0.87283747       0.00000000
Si      -3.62866822       0.76076450      -0.04401553       0.00000000
Si      -1.63268710       0.62717999      -3.27579722       0.00000000
Si       2.13237892      -0.29112382      -3.08907403       0.00000000
Si       1.44029827      -3.33258085      -1.14464363       0.00000000
Si      -2.14789093      -3.24658594       0.44683986       0.00000000
