10
Lattice="16.28999089631971 0.0 0.0 0.0 16.28999089631971 0.0 0.0 0.0 34.279985188174585" Properties=species:S:1:pos:R:3:initial_magmoms:R:1 pbc="T T T"
Si       0.86040522       0.02632464      -2.12638867       0.00000000
Si      -0.81653625      -2.13969150       0.32473448       0.00000000
Si       2.00575512       0.32738013       1.19362975       0.00000000
Si      -1.45109691       1.66179177       0.90800876       0.00000000
Si       2.34888768       2.31743169      -0.01724284       0.00000000
Si       1.35827649       2.24898111      -2.12258359       0.00000000
Si       0.44911530      -3.28432464      -1.29636692       0.00000000
Si      -0.84175317       1.52322903       3.18612072       0.00000000
Si       0.16495254      -2.93760828       2.35003142       0.00000000
Si       1.45520199       0.94364712       3.40263323       0.00000000
