10
Lattice="16.28999089631971 0.0 0.0 0.0 16.28999089631971 0.0 0.0 0.0 34.279985188174585" Properties=species:S:1:pos:R:3:initial_magmoms:R:1 pbc="T T T"
Si       1.90690740       0.16801506      -1.41103354       0.00000000
Si      -1.11115719       2.28828888      -0.10212013       0.00000000
Si       1.20754512       0.40544181       2.35866998       0.00000000
Si      -1.23385347      -1.08191664      -2.27756349       0.00000000
Si       0.82233549       2.34300699      -1.56512216       0.00000000
Si      -1.36984239      -2.41655634       2.35582474       0.00000000
Si      -0.60707943      -0.43808697       3.65737621       0.00000000
Si      -2.47161654      -2.98852267       0.24794727       0.00000000
Si      -2.83615416       2.16806868      -1.74570922       0.00000000
Si       1.77787431      -1.06679952      -3.40355879       0.00000000
