10
Lattice="16.28999089631971 0.0 0.0 0.0 16.28999089631971 0.0 0.0 0.0 34.279985188174585" Properties=species:S:1:pos:R:3:initial_magmoms:R:1 pbc="T T T"
Si      -1.41244074       1.77849333      -0.08957365       0.00000000
Si      -1.49019291      -1.68228459       0.74017385       0.00000000
Si       0.77853168      -1.02612339      -2.10825455       0.00000000
Si       1.18213272       0.55897506       2.11987547       0.00000000
Si       0.44963658      -3.04974864       0.64401844       0.00000000
Si       2.31941907      -2.33232075      -0.71727481       0.00000000
Si      -2.34753561       1.73416824      -2.22107004       0.00000000
Si       3.37895325       0.40689162       1.54856492       0.00000000
Si      -0.53387217       3.59950356       1.27487336       0.00000000
Si      -2.27815650      -1.35136953       2.93491685       0.00000000
