10
Lattice="16.28999089631971 0.0 0.0 0.0 16.28999089631971 0.0 0.0 0.0 34.279985188174585" Properties=species:S:1:pos:R:3:initial_magmoms:R:1 pbc="T T T"
Si       2.19682053      -0.15208344      -0.57131055       0.00000000
Si      -0.71563599       2.02898466       0.96498212       0.00000000
Si      -0.05224203      -1.56745638       1.78074339       0.00000000
Si      -1.18213272      -0.55897506      -2.11987547       0.00000000
Si      -2.17407969      -0.99443934       2.54707288       0.00000000
Si      -1.71600489       3.04052850      -0.84500211       0.00000000
Si       0.25811505      -3.54027312       0.62948372       0.00000000
Si      -2.59457346       1.21951827      -2.20944912       0.00000000
Si      -2.11805838       1.36067112       2.72580883       0.00000000
Si       3.49962957       0.18269235       1.31453533       0.00000000
