10
Lattice="16.28999089631971 0.0 0.0 0.0 16.28999089631971 0.0 0.0 0.0 34.279985188174585" Properties=species:S:1:pos:R:3:initial_magmoms:R:1 pbc="T T T"
Si       2.12183766      -0.57301704      -0.76632950       0.00000000
Si      -1.28620953      -0.91590525      -1.73203150       0.00000000
Si      -1.16133039      -1.07618256       1.74728610       0.00000000
Si       0.05602131       2.35511046       0.17873594       0.00000000
Si      -3.14945973       0.44165448      -1.26842872       0.00000000
Si      -3.34585197      -0.39627054       0.90790592       0.00000000
Si       2.17407969       0.99443934      -2.54707288       0.00000000
Si      -1.36778985      -3.20147370      -0.99233757       0.00000000
Si       1.21104747       2.67546960       2.14805363       0.00000000
Si      -0.75844611      -3.34003644       1.28577440       0.00000000
