10
Lattice="16.28999089631971 0.0 0.0 0.0 16.28999089631971 0.0 0.0 0.0 34.279985188174585" Properties=species:S:1:pos:R:3:initial_magmoms:R:1 pbc="T T T"
Si       0.24074991       2.29897512      -0.29453380       0.00000000
Si       1.67353686      -0.80786997       1.45950547       0.00000000
Si      -0.49736628      -0.60595542      -2.23337656       0.00000000
Si      -1.88480187      -1.10208366       0.95195572       0.00000000
Si       0.75070836      -2.85878097       2.11977263       0.00000000
Si      -1.14515442      -3.35494179       0.86776403       0.00000000
Si      -1.82434968       2.94695874      -1.21865415       0.00000000
Si       0.37493064       3.28623057       1.81149255       0.00000000
Si      -3.90081806      -0.51590430      -0.11991146       0.00000000
Si      -0.09448200      -2.86980930      -2.69488826       0.00000000
