10
Lattice="16.28999089631971 0.0 0.0 0.0 16.28999089631971 0.0 0.0 0.0 34.279985188174585" Properties=species:S:1:pos:R:3:initial_magmoms:R:1 pbc="T T T"
Si       1.35692442       1.35737115      -1.35721393       0.00000000
Si      -1.35812988      -1.35759231      -1.35721393       0.00000000
Si       1.35742941      -1.35689184       1.35957925       0.00000000
Si      -1.36014984       1.36078608       1.35868797       0.00000000
Si      -2.69708643      -0.01309716       2.71744450       0.00000000
Si       2.71435383      -0.00045612      -2.71480494       0.00000000
Si      -0.00104256       2.71498004      -2.71422218       0.00000000
Si       2.71353933      -2.71570590       0.00023996       0.00000000
Si       2.72130966       0.00562005       2.70818890       0.00000000
Si      -2.71538010       0.00000000      -2.71442786       0.00000000
