10
Lattice="16.28999089631971 0.0 0.0 0.0 16.28999089631971 0.0 0.0 0.0 34.279985188174585" Properties=species:S:1:pos:R:3:initial_magmoms:R:1 pbc="T T T"
Si      -1.34262180       1.31224095       1.38909434       0.00000000
Si       1.33693659       1.37388324      -1.35875653       0.00000000
Si      -1.37373570      -1.34742735      -1.35687113       0.00000000
Si       1.29862251      -1.37345877       1.45981399       0.00000000
Si       0.28067670       2.47036777       2.70554934       0.00000000
Si      -0.42953472      -2.47348989       2.74349731       0.00000000
Si       2.68337025      -2.70120780       0.00699312       0.00000000
Si       2.69708643       0.01309716      -2.71744450       0.00000000
Si      -0.01850544      -2.70265761      -2.71795870       0.00000000
Si       2.68472232       2.73811021       0.00521056       0.00000000
