10
Lattice="16.28999089631971 0.0 0.0 0.0 16.28999089631971 0.0 0.0 0.0 34.279985188174585" Properties=species:S:1:pos:R:3:initial_magmoms:R:1 pbc="T T T"
Si      -1.29862251       1.37345877      -1.45981399       0.00000000
Si       1.38474774      -1.32774903      -1.45282086       0.00000000
Si      -1.72815723      -1.10003112       1.28368332       0.00000000
Si       1.88960742       0.80638758       1.32032865       0.00000000
Si      -0.79306236      -1.05570603       3.41517971       0.00000000
Si       2.63801889       2.60890866      -0.11113577       0.00000000
Si      -2.64124431       2.68569972      -0.07071965       0.00000000
Si       2.76599313      -2.61939942      -0.05704193       0.00000000
Si      -2.67235821       0.02603142      -2.81668512       0.00000000
Si       0.04175127      -2.68293042      -2.81877620       0.00000000
