10
Lattice="16.28999089631971 0.0 0.0 0.0 16.28999089631971 0.0 0.0 0.0 34.279985188174585" Properties=species:S:1:pos:R:3:initial_magmoms:R:1 pbc="T T T"
Si      -0.67023576      -1.90513898      -1.25557372       0.00000000
Si      -2.00544561      -0.16405659       1.41213050       0.00000000
Si       1.66773762       0.03587058       1.86383812       0.00000000
Si       0.47174211       2.07226719      -2.10791175       0.00000000
Si      -2.23901163      -0.58688472      -2.39247006       0.00000000
Si       1.46704482       2.42968608       1.97154589       0.00000000
Si      -0.71330652      -3.43286405       0.53079159       0.00000000
Si      -2.53283436      -2.45347667       1.50029867       0.00000000
Si       3.60442314      -0.97634441       0.90907144       0.00000000
Si      -0.98852607       0.97106319      -3.68030127       0.00000000
