10
Lattice="16.28999089631971 0.0 0.0 0.0 16.28999089631971 0.0 0.0 0.0 34.279985188174585" Properties=species:S:1:pos:R:3:initial_magmoms:R:1 pbc="T T T"
Si       0.92582586       1.61543043       1.42239201       0.00000000
Si      -1.76024853      -1.14557796       1.17124299       0.00000000
Si      -0.92896983       1.75940145      -1.45064056       0.00000000
Si       1.89736146      -1.79041761      -0.06562554       0.00000000
Si       2.33865756       0.33277212       2.71459392       0.00000000
Si      -0.38742507      -2.39037831       2.68383104       0.00000000
Si       2.32665183       2.91033882       0.02731582       0.00000000
Si      -1.48160808       0.60183405      -3.58025155       0.00000000
Si       0.57407589       3.68984790      -1.33929910       0.00000000
Si      -2.77633728       2.84568381      -0.16538036       0.00000000
