10
Lattice="16.28999089631971 0.0 0.0 0.0 16.28999089631971 0.0 0.0 0.0 34.279985188174585" Properties=species:S:1:pos:R:3:initial_magmoms:R:1 pbc="T T T"
Si       1.35610992       1.35803214      -1.35724821       0.00000000
Si      -1.35739683       1.35769005       1.35728249       0.00000000
Si       1.35785295      -1.35710361       1.35748817       0.00000000
Si      -1.35928647      -1.35702216      -1.35659689       0.00000000
Si       0.00055386       2.71233387      -2.71497634       0.00000000
Si       0.00174303      -2.71400034       2.71353658       0.00000000
Si      -2.71365336       0.00079821      -2.71494206       0.00000000
Si      -0.00107514       2.71396287       2.71514774       0.00000000
Si       2.71503801       2.71489140      -0.00027424       0.00000000
Si       2.71595025       0.00009774       2.71405078       0.00000000
