10
Lattice="16.28999089631971 0.0 0.0 0.0 16.28999089631971 0.0 0.0 0.0 34.279985188174585" Properties=species:S:1:pos:R:3:initial_magmoms:R:1 pbc="T T T"
Si       1.48548510       1.27081548       1.23054932       0.00000000
Si       0.45051624      -2.23624233       0.41177141       0.00000000
Si      -2.07808272       1.04039343       0.49973390       0.00000000
Si       0.46866330       0.69770070      -2.23443924       0.00000000
Si      -1.50019497      -2.56849317       1.71931362       0.00000000
Si       0.37079298       2.98897065      -1.71208054       0.00000000
Si      -1.73495016       3.03044499      -0.71113869       0.00000000
Si       0.50217183      -3.17334087      -1.75979830       0.00000000
Si       1.80949320       3.27671721       0.09845217       0.00000000
Si      -1.27290060      -0.26164998      -3.58952782       0.00000000
