10
Lattice="16.28999089631971 0.0 0.0 0.0 16.28999089631971 0.0 0.0 0.0 34.279985188174585" Properties=species:S:1:pos:R:3:initial_magmoms:R:1 pbc="T T T"
Si      -1.48548510      -1.27081548      -1.23054932       0.00000000
Si      -0.46281519       0.48031065       2.21469396       0.00000000
Si       0.32400810       2.00590173      -1.13209714       0.00000000
Si       2.23264224      -0.62854965      -0.35459236       0.00000000
Si       2.59128288       1.56597399      -1.23829660       0.00000000
Si      -1.11469212       1.71815517      -2.94262985       0.00000000
Si      -0.40506714      -1.65780072       3.18276128       0.00000000
Si      -3.56356782      -0.23042205      -0.73081541       0.00000000
Si      -1.01682180      -0.57311478      -3.46498856       0.00000000
Si      -1.03496886      -3.50705781      -0.81877790       0.00000000
