10
Lattice="16.28999089631971 0.0 0.0 0.0 16.28999089631971 0.0 0.0 0.0 34.279985188174585" Properties=species:S:1:pos:R:3:initial_magmoms:R:1 pbc="T T T"
Si       1.78846281       0.82753200       1.34385985       0.00000000
Si       0.84383829      -2.00766105      -1.06408561       0.00000000
Si      -0.87426801      -1.91699091       1.25575339       0.00000000
Si      -1.89736146       1.79041761       0.06562554       0.00000000
Si       0.44129610       2.12318973       2.78021946       0.00000000
Si      -1.81749159      -0.90560997      -2.88654777       0.00000000
Si      -2.28478653      -0.59996070       2.74945658       0.00000000
Si       3.05193150       2.06003340      -0.33961200       0.00000000
Si      -0.97153560       3.40584804       1.48801756       0.00000000
Si      -3.65760999       0.64483965       1.23686853       0.00000000
