10
Lattice="16.28999089631971 0.0 0.0 0.0 16.28999089631971 0.0 0.0 0.0 34.279985188174585" Properties=species:S:1:pos:R:3:initial_magmoms:R:1 pbc="T T T"
Si       1.11737997      -1.21134069      -1.65281868       0.00000000
Si      -1.75257594       0.77950908      -1.36661492       0.00000000
Si       1.32519150       1.44490671       1.31091536       0.00000000
Si      -1.40082597      -1.29490839       1.39507620       0.00000000
Si       0.01200573      -2.57756670       2.68727810       0.00000000
Si      -2.32665183      -2.91033882      -0.02731582       0.00000000
Si       2.62264113      -2.64072303      -0.43255336       0.00000000
Si      -3.25562166      -1.15093737      -1.47795637       0.00000000
Si       2.73149091       0.11865636       2.64600498       0.00000000
Si      -2.72409525       0.14522535       2.67595542       0.00000000
