10
Lattice="16.28999089631971 0.0 0.0 0.0 16.28999089631971 0.0 0.0 0.0 34.279985188174585" Properties=species:S:1:pos:R:3:initial_magmoms:R:1 pbc="T T T"
Si       1.40629941      -1.32625035       1.33508962       0.00000000
Si      -1.32519150      -1.44490671      -1.31091536       0.00000000
Si      -1.33819092       1.40445864       1.34815373       0.00000000
Si       1.11008205       1.60378308      -1.45819052       0.00000000
Si      -2.61135216       2.71769328      -0.21352672       0.00000000
Si       2.65991265       2.71288773       0.02646759       0.00000000
Si       2.78135460      -2.58393609      -0.34548760       0.00000000
Si       0.03258000      -2.67162516       2.72072853       0.00000000
Si      -2.67986790       0.04709439       2.72182549       0.00000000
Si      -2.72601747      -2.73981510       0.08416084       0.00000000
