10
Lattice="16.28999089631971 0.0 0.0 0.0 16.28999089631971 0.0 0.0 0.0 34.279985188174585" Properties=species:S:1:pos:R:3:initial_magmoms:R:1 pbc="T T T"
Si       1.35531171      -1.35817875       1.35800237       0.00000000
Si       1.34167698       1.35736425      -1.37367176       0.00000000
Si      -1.36941885      -1.34677575      -1.35678543       0.00000000
Si      -1.36071999       1.35513252       1.35731677       0.00000000
Si       2.67986790      -0.04709439      -2.72182549       0.00000000
Si       2.71073745       2.71476108      -0.00089128       0.00000000
Si       2.71223613      -0.00105885       2.71449642       0.00000000
Si      -0.04614957      -2.78690949      -2.63766465       0.00000000
Si      -0.00267156       2.71340901       2.71411934       0.00000000
Si      -2.71682991       2.71109583      -0.00332516       0.00000000
