10
Lattice="16.28999089631971 0.0 0.0 0.0 16.28999089631971 0.0 0.0 0.0 34.279985188174585" Properties=species:S:1:pos:R:3:initial_magmoms:R:1 pbc="T T T"
Si      -1.86978249      -0.71742789       1.36129325       0.00000000
Si      -1.54088739       1.30619736      -1.39097974       0.00000000
Si       1.30142439      -1.67050692      -1.29794380       0.00000000
Si       1.22657184      -0.69045165       2.46569215       0.00000000
Si      -2.31941907       2.33232075       0.71727481       0.00000000
Si      -0.87917130      -0.64897731       3.46663400       0.00000000
Si       1.05953418       2.73921237       2.26583973       0.00000000
Si       2.50771518      -0.18611325      -2.77452071       0.00000000
Si       1.32444216      -2.98172160       1.94333345       0.00000000
Si      -0.17280432       2.54712069      -2.84452048       0.00000000
