10
Lattice="16.28999089631971 0.0 0.0 0.0 16.28999089631971 0.0 0.0 0.0 34.279985188174585" Properties=species:S:1:pos:R:3:initial_magmoms:R:1 pbc="T T T"
Si      -1.09908630      -0.20878893      -2.03396978       0.00000000
Si       2.15720325       0.85905315      -0.47618354       0.00000000
Si      -0.91688265       1.86189813       1.14762599       0.00000000
Si       0.06116895      -2.00803572       1.29417300       0.00000000
Si      -0.21954033       1.05551055       3.23013625       0.00000000
Si       1.85033223       2.02417911      -2.50902208       0.00000000
Si      -3.23568270       0.76308876      -1.71873086       0.00000000
Si      -0.51717492      -1.27394316       3.49899432       0.00000000
Si      -0.87350238      -2.42475021      -2.78449619       0.00000000
Si       0.19341117       3.80475756       0.28037616       0.00000000
