10
Lattice="16.28999089631971 0.0 0.0 0.0 16.28999089631971 0.0 0.0 0.0 34.279985188174585" Properties=species:S:1:pos:R:3:initial_magmoms:R:1 pbc="T T T"
Si       1.67518215       1.61150454       0.16968602       0.00000000
Si      -1.86346197       1.42426728      -0.03606256       0.00000000
Si       0.60237162      -1.04831037      -2.02512554       0.00000000
Si      -0.40042449      -0.87796584       2.19899372       0.00000000
Si      -3.26800206      -0.39123693      -0.57168763       0.00000000
Si       0.95923665       2.53648332       2.26494845       0.00000000
Si       1.43000136      -2.34457083       2.35212250       0.00000000
Si      -0.51732153       1.12280454       3.40527279       0.00000000
Si       1.26480447       0.77323743      -3.39142367       0.00000000
Si       1.80151110       2.61462645      -1.98354389       0.00000000
