10
Lattice="16.28999089631971 0.0 0.0 0.0 16.28999089631971 0.0 0.0 0.0 34.279985188174585" Properties=species:S:1:pos:R:3:initial_magmoms:R:1 pbc="T T T"
Si      -1.35606105       1.35641245       1.35683685       0.00000000
Si       1.36000323      -1.35839052       1.35738533       0.00000000
Si       1.35734796       1.36958117      -1.35884909       0.00000000
Si      -1.36906047      -1.35739683      -1.37278048       0.00000000
Si       2.62904310      -0.04896774      -2.69446662       0.00000000
Si      -2.71073745      -2.71476108       0.00089128       0.00000000
Si      -2.71340901      -0.00135207       2.71501062       0.00000000
Si       0.00175932       2.71392933       2.71470210       0.00000000
Si       2.71686249       2.71293564      -0.00253672       0.00000000
Si      -2.71417464       2.71612197      -0.00373652       0.00000000
