10
Lattice="16.28999089631971 0.0 0.0 0.0 16.28999089631971 0.0 0.0 0.0 34.279985188174585" Properties=species:S:1:pos:R:3:initial_magmoms:R:1 pbc="T T T"
Si       1.75804938       0.92207916      -1.34758125       0.00000000
Si       1.06989462      -0.19917783       2.13845523       0.00000000
Si      -0.97117722      -1.76270832      -1.31978017       0.00000000
Si      -1.84756293       1.66307868       0.05759041       0.00000000
Si       0.38260323       2.24886708      -2.73180783       0.00000000
Si      -2.35242261      -0.47105793      -2.71555910       0.00000000
Si      -1.71831807       2.44195245       2.35980122       0.00000000
Si      -2.33926029      -3.00363165       0.13376058       0.00000000
Si      -1.09915146       3.46559976      -1.37387401       0.00000000
Si       3.37681926       2.15863677      -0.00641036       0.00000000
