10
Lattice="16.28999089631971 0.0 0.0 0.0 16.28999089631971 0.0 0.0 0.0 34.279985188174585" Properties=species:S:1:pos:R:3:initial_magmoms:R:1 pbc="T T T"
Si       0.84854610       0.90818379      -1.94964097       0.00000000
Si       1.36700793      -1.55002608       1.08105422       0.00000000
Si      -0.24288390       1.51653384       1.75993542       0.00000000
Si      -1.83493818      -1.31934339      -0.65365112       0.00000000
Si      -2.13802992       0.71591292       2.81305144       0.00000000
Si       1.85100012       1.53775971       2.78912399       0.00000000
Si      -0.90196101       0.51215760      -3.62072262       0.00000000
Si      -2.83530708      -0.30779955      -2.46363535       0.00000000
Si       3.00368052      -0.40620744       2.28620205       0.00000000
Si       0.05426199      -2.63917548       2.76125435       0.00000000
