10
Lattice="16.28999089631971 0.0 0.0 0.0 16.28999089631971 0.0 0.0 0.0 34.279985188174585" Properties=species:S:1:pos:R:3:initial_magmoms:R:1 pbc="T T T"
Si      -1.34822556      -1.33695288      -1.40208646       0.00000000
Si       1.36394510       1.37876931      -1.39882986       0.00000000
Si      -1.48199904       1.22070744       1.53063647       0.00000000
Si       1.36177264      -1.53226998       1.62014157       0.00000000
Si      -2.70273906      -2.69025603      -0.00339372       0.00000000
Si       2.73184182      -2.69454193      -0.01947104       0.00000000
Si      -2.71194291       2.73300588      -0.01124384       0.00000000
Si       2.72762271       2.72635956      -0.02063656       0.00000000
Si       0.00677664      -2.69772011      -2.76207707       0.00000000
Si      -2.70599706       0.01832625      -2.76320831       0.00000000
