10
Lattice="16.28999089631971 0.0 0.0 0.0 16.28999089631971 0.0 0.0 0.0 34.279985188174585" Properties=species:S:1:pos:R:3:initial_magmoms:R:1 pbc="T T T"
Si       1.11679353      -1.46679690      -1.47558279       0.00000000
Si      -1.32004386      -1.54443504       1.23312032       0.00000000
Si      -1.60205634       1.26167614      -1.44133706       0.00000000
Si       1.71235593       0.61011035       1.75613034       0.00000000
Si       2.46245536       2.41966219       0.18219822       0.00000000
Si       2.47738763      -2.77244040      -0.01566596       0.00000000
Si       2.46777945      -0.10697286      -2.84215516       0.00000000
Si      -2.80207548      -0.31675548       2.51454116       0.00000000
Si      -0.24754284       2.61497929      -2.84002980       0.00000000
Si       3.54937501      -1.08106599       1.36801213       0.00000000
