10
Lattice="16.28999089631971 0.0 0.0 0.0 16.28999089631971 0.0 0.0 0.0 34.279985188174585" Properties=species:S:1:pos:R:3:initial_magmoms:R:1 pbc="T T T"
Si       1.36093176       1.35340578       1.37282162       0.00000000
Si      -1.35493704      -1.36221867       1.37463846       0.00000000
Si      -1.35345465       1.41918480      -1.40272749       0.00000000
Si       1.28176236      -1.31582475      -1.57774406       0.00000000
Si       2.70684414      -2.70350469      -0.00862485       0.00000000
Si      -2.70062136       2.71484253       0.03363211       0.00000000
Si       2.71627701       2.71753038      -0.03384122       0.00000000
Si      -2.70423774      -2.73484665      -0.01938191       0.00000000
Si       0.00154755       2.71155195       2.73600027       0.00000000
Si      -2.71391400      -0.00369783       2.73603455       0.00000000
