10
Lattice="16.28999089631971 0.0 0.0 0.0 16.28999089631971 0.0 0.0 0.0 34.279985188174585" Properties=species:S:1:pos:R:3:initial_magmoms:R:1 pbc="T T T"
Si       1.35767457       1.35703845      -1.35601413       0.00000000
Si      -1.35479043       1.35334062       1.36317865       0.00000000
Si      -1.35798327      -1.35801585      -1.35621981       0.00000000
Si       1.35584897      -1.35483930       1.36454985       0.00000000
Si       0.00037467       2.71441899      -2.71442786       0.00000000
Si      -2.71500543      -0.00048870      -2.71415362       0.00000000
Si       2.71500447      -0.00027693      -2.71429074       0.00000000
Si      -2.71409319      -2.71528236       0.00017140       0.00000000
Si       0.00011403      -2.71533123      -2.71418790       0.00000000
Si       2.71491488       2.71511946       0.00106268       0.00000000
