10
Lattice="16.28999089631971 0.0 0.0 0.0 16.28999089631971 0.0 0.0 0.0 34.279985188174585" Properties=species:S:1:pos:R:3:initial_magmoms:R:1 pbc="T T T"
Si       1.52561244       1.35172791      -1.27778716       0.00000000
Si      -1.41147963      -1.47523869      -1.30085760       0.00000000
Si      -1.88577927       0.81531450       1.37949593       0.00000000
Si       1.40773293      -1.19273751       1.68835877       0.00000000
Si      -0.67504131       0.62055126       3.44034124       0.00000000
Si       2.57654436      -2.60916930       0.11651773       0.00000000
Si      -2.64142350       0.03705975      -2.84273792       0.00000000
Si      -2.61544095       2.88210825       0.18555766       0.00000000
Si       0.07051941      -2.69594613      -2.83149408       0.00000000
Si      -3.51934047      -1.01713131       1.45186102       0.00000000
