10
Lattice="16.28999089631971 0.0 0.0 0.0 16.28999089631971 0.0 0.0 0.0 34.279985188174585" Properties=species:S:1:pos:R:3:initial_magmoms:R:1 pbc="T T T"
Si      -1.14425231      -1.61904681      -1.32787025       0.00000000
Si      -1.16881143       1.41643179       1.57184104       0.00000000
Si       1.51829642       1.22132646      -1.53248759       0.00000000
Si       0.58028564      -0.85716351       2.65577478       0.00000000
Si       2.64782873      -1.47116619       1.52905959       0.00000000
Si      -2.57654436       2.60916930      -0.11651773       0.00000000
Si       3.56669876       0.60947406       0.86351331       0.00000000
Si      -2.50602495      -0.08677683      -2.94801181       0.00000000
Si       2.88778043       2.59300962      -0.17256554       0.00000000
Si      -1.89435174      -3.42859865       0.24606187       0.00000000
