10
Lattice="16.28999089631971 0.0 0.0 0.0 16.28999089631971 0.0 0.0 0.0 34.279985188174585" Properties=species:S:1:pos:R:3:initial_magmoms:R:1 pbc="T T T"
Si      -2.23264224       0.62854965       0.35459236       0.00000000
Si       0.35864064       2.19452364      -0.88370423       0.00000000
Si       0.92492991      -0.66275865       2.11925843       0.00000000
Si       0.25653492      -1.22186403      -2.07633986       0.00000000
Si      -1.90863414       2.63445138      -0.77750478       0.00000000
Si       2.24085240      -0.16242759      -2.64984434       0.00000000
Si       3.03552747      -1.50211719       1.37963305       0.00000000
Si      -0.73945197      -2.23146936       2.80331592       0.00000000
Si       1.27645182       2.02849596      -2.98410866       0.00000000
Si      -3.71812734      -0.64226583      -0.87595695       0.00000000
