10
Lattice="16.28999089631971 0.0 0.0 0.0 16.28999089631971 0.0 0.0 0.0 34.279985188174585" Properties=species:S:1:pos:R:3:initial_magmoms:R:1 pbc="T T T"
Si      -1.34576577      -1.35084825      -1.34436579       0.00000000
Si       1.35640314      -1.35413883       1.35800237       0.00000000
Si      -1.35713619       1.36054080       1.35909933       0.00000000
Si       1.37371941       1.34537481      -1.38563891       0.00000000
Si      -0.03258000       2.67162516      -2.72072853       0.00000000
Si      -2.75859747      -0.06818994      -2.63656769       0.00000000
Si      -0.00013032      -2.71252935       2.71501062       0.00000000
Si       2.71578735      -2.71228500      -0.00517628       0.00000000
Si       0.00140094      -2.64650598      -2.78072539       0.00000000
Si      -2.71461447      -2.71508688       0.00030852       0.00000000
