10
Lattice="16.28999089631971 0.0 0.0 0.0 16.28999089631971 0.0 0.0 0.0 34.279985188174585" Properties=species:S:1:pos:R:3:initial_magmoms:R:1 pbc="T T T"
Si      -1.23357654       1.32849837       1.51682163       0.00000000
Si       1.33067898       1.38047976      -1.38319818       0.00000000
Si      -1.37885076      -1.34113941      -1.38062718       0.00000000
Si       1.42293657      -1.38041460       1.57328080       0.00000000
Si       2.69546625      -2.70172908      -0.00106268       0.00000000
Si       2.68830190       2.73424392      -0.00630752       0.00000000
Si       2.69085455       0.02063943      -2.74274315       0.00000000
Si      -0.02406033      -2.69448003      -2.74380583       0.00000000
Si      -2.74409937      -2.69508276       0.00833004       0.00000000
Si      -2.72736954       2.71868697      -0.00102840       0.00000000
