10
Lattice="16.28999089631971 0.0 0.0 0.0 16.28999089631971 0.0 0.0 0.0 34.279985188174585" Properties=species:S:1:pos:R:3:initial_magmoms:R:1 pbc="T T T"
Si       1.72367748      -0.58266072       1.45107258       0.00000000
Si      -1.99106154      -0.24653286       1.18334575       0.00000000
Si       0.16361676       2.35364436       0.04531817       0.00000000
Si      -0.25842456      -0.16806393      -2.36747994       0.00000000
Si      -3.29387058      -0.58130865      -0.70250013       0.00000000
Si      -2.48513724       0.79013016      -2.35462494       0.00000000
Si       1.07129556       1.80142965      -2.89278673       0.00000000
Si      -1.70331498       2.84789925      -1.43170438       0.00000000
Si       3.49433532      -0.97199172      -0.06307521       0.00000000
Si       2.09921085       1.43065296       2.66921254       0.00000000
