10
Lattice="16.28999089631971 0.0 0.0 0.0 16.28999089631971 0.0 0.0 0.0 34.279985188174585" Properties=species:S:1:pos:R:3:initial_magmoms:R:1 pbc="T T T"
Si      -1.06862400      -1.53007083      -1.39293370       0.00000000
Si       0.07591140       2.05042230      -1.14354666       0.00000000
Si      -1.67637132       0.46273374       1.62686045       0.00000000
Si       2.16657393      -0.95425191       0.29189424       0.00000000
Si       1.79185113      -1.80916740       2.47052563       0.00000000
Si      -3.53128104       0.69203178       0.15727666       0.00000000
Si       1.88439462      -0.63964314      -3.02617022       0.00000000
Si       1.84656924       1.66109130      -2.65769446       0.00000000
Si      -3.33589878      -1.09014309      -1.28673424       0.00000000
Si       3.63160205       0.81314793       0.72916997       0.00000000
