10
Lattice="16.28999089631971 0.0 0.0 0.0 16.28999089631971 0.0 0.0 0.0 34.279985188174585" Properties=species:S:1:pos:R:3:initial_magmoms:R:1 pbc="T T T"
Si      -0.66243285      -1.82154780       1.36629813       0.00000000
Si      -1.85490972       0.22929804      -1.46958379       0.00000000
Si       0.53670663       1.84138902       1.40787978       0.00000000
Si       1.67637132      -0.46273374      -1.62686045       0.00000000
Si       1.75228272       1.58768856      -2.77040711       0.00000000
Si       0.60774732      -1.99280457      -3.01979414       0.00000000
Si       0.41037768       0.83826711       3.56110969       0.00000000
Si      -1.65952746      -1.55287683      -2.91359469       0.00000000
Si       1.36063854      -3.02026374       1.64012681       0.00000000
Si      -1.26480447      -0.77323743       3.39142367       0.00000000
