10
Lattice="16.28999089631971 0.0 0.0 0.0 16.28999089631971 0.0 0.0 0.0 34.279985188174585" Properties=species:S:1:pos:R:3:initial_magmoms:R:1 pbc="T T T"
Si      -0.54882639       1.71952353      -1.40239498       0.00000000
Si      -1.04643702       0.67293990       1.97182013       0.00000000
Si       2.35857113       0.33906006       0.25812843       0.00000000
Si      -1.34890974      -1.77349230      -1.08077998       0.00000000
Si       2.14955414      -1.81607436       1.31765481       0.00000000
Si       0.84717027       0.92365929      -3.10995055       0.00000000
Si       2.86318646       0.33747993      -2.03808338       0.00000000
Si      -1.94719257      -1.32713001       2.81980460       0.00000000
Si      -3.07667601      -1.95470226       0.57844079       0.00000000
Si      -1.55483163       2.97861021       1.66196317       0.00000000
