10
Lattice="16.28999089631971 0.0 0.0 0.0 16.28999089631971 0.0 0.0 0.0 34.279985188174585" Properties=species:S:1:pos:R:3:initial_magmoms:R:1 pbc="T T T"
Si      -1.35532800       1.35607734      -1.36163605       0.00000000
Si       1.36085031      -1.35863487      -1.36023057       0.00000000
Si       1.36852290       1.34928441       1.36533829       0.00000000
Si      -1.34280099      -1.37520180       1.38237546       0.00000000
Si      -2.68708437       0.03508866       2.73287051       0.00000000
Si      -2.71259451       2.71215538      -0.00006856       0.00000000
Si      -2.71083519      -2.71704168       0.00082272       0.00000000
Si       2.71950882       2.70910845      -0.00123408       0.00000000
Si       2.71524753      -2.71340901       0.00020568       0.00000000
Si      -2.71194291      -0.00140094      -2.71693030       0.00000000
