10
Lattice="16.28999089631971 0.0 0.0 0.0 16.28999089631971 0.0 0.0 0.0 34.279985188174585" Properties=species:S:1:pos:R:3:initial_magmoms:R:1 pbc="T T T"
Si       1.36132243       1.34804637       1.40717704       0.00000000
Si      -1.35534525      -1.36412460       1.40666284       0.00000000
Si       1.39955995      -1.33139799      -1.60191146       0.00000000
Si      -1.32235800       1.43584947      -1.65437701       0.00000000
Si      -2.69741319       2.69353521       0.02620021       0.00000000
Si       2.70582410      -2.71635750       0.01315667       0.00000000
Si       2.73032426       2.69231346       0.02482215       0.00000000
Si      -2.71627701      -2.71753038       0.03384122       0.00000000
Si       0.00032140       2.70835911       2.76939585       0.00000000
Si      -2.71472946      -0.00597843       2.76984149       0.00000000
