10
Lattice="16.28999089631971 0.0 0.0 0.0 16.28999089631971 0.0 0.0 0.0 34.279985188174585" Properties=species:S:1:pos:R:3:initial_magmoms:R:1 pbc="T T T"
Si      -1.35706289      -1.35708732       1.35697397       0.00000000
Si      -1.35448744       1.35511623      -1.36256161       0.00000000
Si       1.35790182       1.35786924       1.35711109       0.00000000
Si       1.36130643      -1.35783666      -1.36269873       0.00000000
Si      -2.71400264      -2.71507059       0.00017140       0.00000000
Si      -2.71439279       0.00022806       2.71525058       0.00000000
Si       0.00070047      -2.71461447       2.71507918       0.00000000
Si       2.71497285       2.71482624      -0.00030852       0.00000000
Si       0.00058644       2.71513575       2.71497634       0.00000000
Si       2.71555929       0.00021177       2.71477066       0.00000000
