10
Lattice="16.28999089631971 0.0 0.0 0.0 16.28999089631971 0.0 0.0 0.0 34.279985188174585" Properties=species:S:1:pos:R:3:initial_magmoms:R:1 pbc="T T T"
Si       1.35875542       1.35546647      -1.35769385       0.00000000
Si      -1.35690955      -1.35841092      -1.35680257       0.00000000
Si       1.35763141      -1.35777762       1.35676829       0.00000000
Si      -1.35744071       1.35714434       1.35786525       0.00000000
Si       2.71569613       0.00089432      -2.71192542       0.00000000
Si      -0.00003747      -2.71454835       2.71411934       0.00000000
Si       2.71449067      -0.00120546       2.71425646       0.00000000
Si       0.00084708      -2.71405965      -2.71480494       0.00000000
Si       0.00120709       2.71480180       2.71463354       0.00000000
Si      -2.71471288       2.71485068      -0.00034280       0.00000000
