10
Lattice="16.28999089631971 0.0 0.0 0.0 16.28999089631971 0.0 0.0 0.0 34.279985188174585" Properties=species:S:1:pos:R:3:initial_magmoms:R:1 pbc="T T T"
Si      -1.24491601       1.90524582      -0.65036024       0.00000000
Si      -0.73331064      -2.05009650      -1.07968302       0.00000000
Si       2.20806063       1.08123246      -0.48766734       0.00000000
Si      -0.58318200      -0.54397197       2.45225439       0.00000000
Si       1.21036329       0.95970906       2.90499041       0.00000000
Si      -1.04629041       3.21595551       1.64252641       0.00000000
Si      -3.35015972       1.35488817      -1.53601843       0.00000000
Si      -0.07146423       3.30388893      -2.15298995       0.00000000
Si      -0.22869531      -2.05167663      -3.37589483       0.00000000
Si       2.03103720       2.33663760      -2.51635800       0.00000000
