10
Lattice="16.28999089631971 0.0 0.0 0.0 16.28999089631971 0.0 0.0 0.0 34.279985188174585" Properties=species:S:1:pos:R:3:initial_magmoms:R:1 pbc="T T T"
Si      -1.35239556      -1.35268902       1.35937700       0.00000000
Si       1.36060687       1.36475991       1.36143380       0.00000000
Si       1.34388030      -1.35487188      -1.39065065       0.00000000
Si      -1.44260958       1.31556411      -1.33334134       0.00000000
Si       0.20529727       2.51449182      -2.44623105       0.00000000
Si      -2.69622282      -2.72357397      -0.02471931       0.00000000
Si       0.00151177      -2.70875007       2.71847633       0.00000000
Si       2.72283206       2.70574996       0.01937849       0.00000000
Si      -2.71164945       0.00614133       2.71851061       0.00000000
Si       2.71634864       0.00687438       2.71947045       0.00000000
