10
Lattice="16.28999089631971 0.0 0.0 0.0 16.28999089631971 0.0 0.0 0.0 34.279985188174585" Properties=species:S:1:pos:R:3:initial_magmoms:R:1 pbc="T T T"
Si       1.35578884      -1.35221661      -1.35889365       0.00000000
Si      -1.35098592      -1.35982404       1.36657237       0.00000000
Si      -1.36032009       1.36118493      -1.35786525       0.00000000
Si       1.36474508       1.36436310       1.38474078       0.00000000
Si      -2.46777945       0.10697286       2.84215516       0.00000000
Si      -0.00119306      -2.71044423      -2.71576478       0.00000000
Si      -2.71950882      -2.70910845       0.00123408       0.00000000
Si       2.71581977      -2.71337643       0.00226248       0.00000000
Si       2.71345772       0.00455413      -2.71624470       0.00000000
Si      -2.71641372       0.00461336      -2.71542198       0.00000000
