10
Lattice="16.28999089631971 0.0 0.0 0.0 16.28999089631971 0.0 0.0 0.0 34.279985188174585" Properties=species:S:1:pos:R:3:initial_magmoms:R:1 pbc="T T T"
Si      -1.35578884       1.35221661       1.35889365       0.00000000
Si       1.35766887       1.35677074      -1.35735105       0.00000000
Si      -1.35698190      -1.35822762      -1.35687113       0.00000000
Si       1.36003092      -1.36115982       1.36115613       0.00000000
Si       2.71452813       2.71334289       0.00013712       0.00000000
Si       0.00003747       2.71454835      -2.71411934       0.00000000
Si      -2.71475686      -0.00079821      -2.71422218       0.00000000
Si       2.71547295      -0.00063531      -2.71384510       0.00000000
Si      -2.71610893       2.71340154       0.00102840       0.00000000
Si       0.00029485      -2.71578735      -2.71411934       0.00000000
