10
Lattice="16.28999089631971 0.0 0.0 0.0 16.28999089631971 0.0 0.0 0.0 34.279985188174585" Properties=species:S:1:pos:R:3:initial_magmoms:R:1 pbc="T T T"
Si       1.35560493      -1.35362649       1.35975065       0.00000000
Si      -1.35679410      -1.35656619      -1.35800237       0.00000000
Si       1.35811359       1.35834980      -1.35752245       0.00000000
Si      -1.35700587       1.35885479       1.35947641       0.00000000
Si       2.70407484       0.00995156       2.72337495       0.00000000
Si      -2.71448741      -2.71324515      -0.00061704       0.00000000
Si       0.00102627      -2.71396191      -2.71446214       0.00000000
Si      -2.71309950       2.71600727      -0.00003428       0.00000000
Si      -2.71441573       0.00122664      -2.71473638       0.00000000
Si       2.71534752       0.00101975      -2.71422218       0.00000000
