10
Lattice="16.28999089631971 0.0 0.0 0.0 16.28999089631971 0.0 0.0 0.0 34.279985188174585" Properties=species:S:1:pos:R:3:initial_magmoms:R:1 pbc="T T T"
Si      -1.35614250       1.35757799      -1.35563705       0.00000000
Si       1.35791811       1.35645724       1.35673401       0.00000000
Si      -1.35640314      -1.35852442       1.35649405       0.00000000
Si       1.35918873      -1.36134259      -1.36136181       0.00000000
Si      -2.70865233      -0.01673051      -2.70031136       0.00000000
Si      -2.71306692       2.71207683      -0.00147404       0.00000000
Si      -2.71422351      -0.00112870       2.71295382       0.00000000
Si       0.00068418       2.71378728       2.71343374       0.00000000
Si       2.71396287       2.71445517      -0.00037708       0.00000000
Si       2.71590138      -0.00115396       2.71370798       0.00000000
