10
Lattice="16.28999089631971 0.0 0.0 0.0 16.28999089631971 0.0 0.0 0.0 34.279985188174585" Properties=species:S:1:pos:R:3:initial_magmoms:R:1 pbc="T T T"
Si       1.39932729       1.30215744      -1.38258114       0.00000000
Si      -1.34936586      -1.45130868      -1.28142084       0.00000000
Si       1.10278413       0.22739211       2.09241719       0.00000000
Si      -2.13214923       0.52924581       1.12980038       0.00000000
Si      -0.84781305       1.22826600       2.86166048       0.00000000
Si       0.41513436      -3.30580626       1.08811590       0.00000000
Si       0.91137663      -1.88669151       2.95219397       0.00000000
Si      -2.77863417       2.52323955       0.07445617       0.00000000
Si       2.81645955       2.49621444       0.20540579       0.00000000
Si      -0.02542869       2.58885567      -2.74116627       0.00000000
