10
Lattice="16.28999089631971 0.0 0.0 0.0 16.28999089631971 0.0 0.0 0.0 34.279985188174585" Properties=species:S:1:pos:R:3:initial_magmoms:R:1 pbc="T T T"
Si      -1.28433618      -0.69902019      -1.73186010       0.00000000
Si       0.49790385       2.22216777       0.00202252       0.00000000
Si      -0.86170842      -0.02746494       2.12244647       0.00000000
Si       1.95059718      -1.00087389      -0.76924330       0.00000000
Si       0.84781305      -1.22826600      -2.86166048       0.00000000
Si       1.48703265       2.28939660       2.10750039       0.00000000
Si      -0.42451740      -3.33335754       0.82957611       0.00000000
Si       1.14117966       0.29874231       3.31741314       0.00000000
Si       1.75918968      -3.11495751       0.09053349       0.00000000
Si      -1.93082112       1.29497355      -2.78720431       0.00000000
