10
Lattice="16.28999089631971 0.0 0.0 0.0 16.28999089631971 0.0 0.0 0.0 34.279985188174585" Properties=species:S:1:pos:R:3:initial_magmoms:R:1 pbc="T T T"
Si      -0.40247703       2.26448919       0.46188878       0.00000000
Si      -0.60716088       0.14035464      -2.27643225       0.00000000
Si      -1.03198779      -1.60067169       1.42433418       0.00000000
Si       2.29819320      -0.57871854       0.21757519       0.00000000
Si       0.84240477      -1.52249598      -3.18773188       0.00000000
Si       0.75890223       3.33998757      -1.28574012       0.00000000
Si       2.84529285      -1.19628873      -1.99276521       0.00000000
Si      -1.05024888      -0.48495330       3.56306365       0.00000000
Si       2.31414111      -2.36542203       1.76291778       0.00000000
Si       0.34948566      -3.56488731       1.34086237       0.00000000
