10
Lattice="16.28999089631971 0.0 0.0 0.0 16.28999089631971 0.0 0.0 0.0 34.279985188174585" Properties=species:S:1:pos:R:3:initial_magmoms:R:1 pbc="T T T"
Si      -1.81413585      -0.84387087       1.29862739       0.00000000
Si       1.78025265      -1.61344305       0.20191064       0.00000000
Si       0.97471215       1.88291223       1.22092833       0.00000000
Si      -1.20741480      -0.40526262      -2.35853286       0.00000000
Si      -0.38116971      -2.06863452       2.75303884       0.00000000
Si       2.34756819       0.63794898       2.73286849       0.00000000
Si      -2.57732235      -2.82177009      -0.00277668       0.00000000
Si       0.69947631      -0.23755707      -3.76915504       0.00000000
Si       0.91911438      -3.46692251       1.38734404       0.00000000
Si      -2.31826248       1.88234208      -2.46072155       0.00000000
