10
Lattice="16.28999089631971 0.0 0.0 0.0 16.28999089631971 0.0 0.0 0.0 34.279985188174585" Properties=species:S:1:pos:R:3:initial_magmoms:R:1 pbc="T T T"
Si      -1.35897696      -1.34037378       1.38216978       0.00000000
Si      -1.24235685       1.27926999      -1.56093314       0.00000000
Si       1.35185823       1.37526696       1.38429514       0.00000000
Si       1.33801173      -1.45640745      -1.50037066       0.00000000
Si       0.32206959       2.53487061      -2.83723396       0.00000000
Si       2.71086777      -2.70137070       0.01156950       0.00000000
Si      -2.70554094       2.71652040      -0.00056905       0.00000000
Si      -2.73056238      -2.69169444      -0.01247792       0.00000000
Si      -0.00389331      -2.69871543       2.74575979       0.00000000
Si       2.70063765       2.74489758       0.03141420       0.00000000
