10
Lattice="16.28999089631971 0.0 0.0 0.0 16.28999089631971 0.0 0.0 0.0 34.279985188174585" Properties=species:S:1:pos:R:3:initial_magmoms:R:1 pbc="T T T"
Si       2.09373741      -0.63304569      -0.81500710       0.00000000
Si      -0.92277963      -2.05087842       0.66006148       0.00000000
Si      -1.67358573       0.80783739      -1.45953975       0.00000000
Si       0.62193591       1.23222447       1.97469965       0.00000000
Si      -3.55828986      -0.29418111      -0.50765258       0.00000000
Si       1.02495051      -0.57966336       3.42189859       0.00000000
Si       2.42949060      -2.64663630       0.44162930       0.00000000
Si       3.49821234       1.18237707      -0.27927920       0.00000000
Si       0.44154045      -3.76261533      -0.13948534       0.00000000
Si      -0.61366059      -2.27247129       3.02887834       0.00000000
