10
Lattice="16.28999089631971 0.0 0.0 0.0 16.28999089631971 0.0 0.0 0.0 34.279985188174585" Properties=species:S:1:pos:R:3:initial_magmoms:R:1 pbc="T T T"
Si       1.50345297       1.93085370       0.11147857       0.00000000
Si       0.92918160      -1.75923855       1.45071892       0.00000000
Si      -0.55221471      -1.15686693      -2.12909679       0.00000000
Si      -1.84689504       1.08670590       1.28543160       0.00000000
Si       1.85556132      -0.14372667       2.87285774       0.00000000
Si       3.25570311       1.15127946       1.47802493       0.00000000
Si      -0.95522931       0.65502090      -3.57629573       0.00000000
Si      -0.76268151       2.66706396       2.71802868       0.00000000
Si      -0.83095290      -2.90457216       2.62229491       0.00000000
Si       1.25048556      -2.56028301      -2.88267413       0.00000000
