10
Lattice="16.28999089631971 0.0 0.0 0.0 16.28999089631971 0.0 0.0 0.0 34.279985188174585" Properties=species:S:1:pos:R:3:initial_magmoms:R:1 pbc="T T T"
Si      -0.24044040       1.68827021      -1.62908865       0.00000000
Si      -1.62189756      -1.69855830       0.22535675       0.00000000
Si      -0.33531336       1.15443972       2.04919010       0.00000000
Si       2.19713004      -0.74015244      -0.55225087       0.00000000
Si       2.89421172      -1.54689840       1.53019083       0.00000000
Si       1.75990644       2.91233176      -1.29952068       0.00000000
Si      -1.82394243       3.03330456       1.04509449       0.00000000
Si      -1.75617603      -2.68589520      -1.88066960       0.00000000
Si      -0.17813115       0.54496566      -3.68331791       0.00000000
Si      -1.14191271      -0.77926473       3.48267704       0.00000000
