10
Lattice="16.28999089631971 0.0 0.0 0.0 16.28999089631971 0.0 0.0 0.0 34.279985188174585" Properties=species:S:1:pos:R:3:initial_magmoms:R:1 pbc="T T T"
Si      -1.25595900      -1.55764491       1.29153344       0.00000000
Si      -1.19925351       1.40748858      -1.55699780       0.00000000
Si       1.46414520       1.10345202       1.57626316       0.00000000
Si       1.52099730      -1.29767280      -1.53046507       0.00000000
Si       0.32127138      -2.87717957       2.42435047       0.00000000
Si       2.73733902       2.60788239       0.00716452       0.00000000
Si      -2.49147405       2.85347043      -0.21013643       0.00000000
Si      -2.67214644      -2.79615311      -0.22470543       0.00000000
Si      -2.55355524       0.05093883      -2.93087181       0.00000000
Si       0.99155601      -0.97063965       3.68067835       0.00000000
