10
Lattice="16.28999089631971 0.0 0.0 0.0 16.28999089631971 0.0 0.0 0.0 34.279985188174585" Properties=species:S:1:pos:R:3:initial_magmoms:R:1 pbc="T T T"
Si      -1.96590978       0.79979013      -0.96847868       0.00000000
Si      -0.53098884      -2.29052780       0.08611137       0.00000000
Si      -0.05235606       0.93810852       2.17026708       0.00000000
Si       2.00507094       0.16452900      -1.41243902       0.00000000
Si       1.33478631      -1.74201092      -2.66876690       0.00000000
Si       1.29813381      -3.27061565      -0.88356711       0.00000000
Si      -0.50272569       3.17382957       1.75774150       0.00000000
Si       3.67173342       0.20150730       0.45297598       0.00000000
Si      -2.46215205      -0.61932462      -2.83255676       0.00000000
Si      -0.24244407      -0.42247626      -3.80158392       0.00000000
