10
Lattice="16.28999089631971 0.0 0.0 0.0 16.28999089631971 0.0 0.0 0.0 34.279985188174585" Properties=species:S:1:pos:R:3:initial_magmoms:R:1 pbc="T T T"
Si      -0.99460224       0.95040747      -1.85526812       0.00000000
Si       1.85274315      -1.30759667      -0.45349018       0.00000000
Si      -1.65806136      -1.43130456       0.84771023       0.00000000
Si       0.91004085       1.89832257       1.08725890       0.00000000
Si       2.15824581       2.54527992      -0.86920379       0.00000000
Si       1.70131131      -3.07751399       1.06672518       0.00000000
Si      -0.59523660      -3.50103770       0.99127489       0.00000000
Si       0.41161572       2.77270461      -2.44892923       0.00000000
Si      -0.94956039       3.30963930       1.51071979       0.00000000
Si      -3.19384998       1.50504939      -1.34860965       0.00000000
