10
Lattice="16.28999089631971 0.0 0.0 0.0 16.28999089631971 0.0 0.0 0.0 34.279985188174585" Properties=species:S:1:pos:R:3:initial_magmoms:R:1 pbc="T T T"
Si      -0.91004085      -1.89832257      -1.08725890       0.00000000
Si      -1.85960124       1.41131673       0.42346089       0.00000000
Si       0.80167977       0.30928194       2.24582020       0.00000000
Si       1.24820496       0.64695735      -1.95646269       0.00000000
Si      -1.90464309      -0.94791510      -2.94252701       0.00000000
Si      -0.49842513       0.87438204      -3.53618813       0.00000000
Si       0.94270230      -3.20591924      -1.54074908       0.00000000
Si      -1.61834634       3.30613695      -0.95785188       0.00000000
Si       2.34592290       2.70291825      -1.51689019       0.00000000
Si      -0.04227255       2.31660090       3.31000866       0.00000000
