10
Lattice="16.28999089631971 0.0 0.0 0.0 16.28999089631971 0.0 0.0 0.0 34.279985188174585" Properties=species:S:1:pos:R:3:initial_magmoms:R:1 pbc="T T T"
Si       2.12951351       0.74920968      -0.64206448       0.00000000
Si      -1.85962146       1.43813007       0.21658107       0.00000000
Si       0.89155496      -1.15778731       1.88310348       0.00000000
Si      -0.48848497      -1.72785424      -1.57677736       0.00000000
Si      -1.42197432      -1.86866825       2.19803388       0.00000000
Si       1.07118479       2.44151262      -1.95550285       0.00000000
Si       1.59572279      -2.70750293      -1.23061788       0.00000000
Si      -3.14526084      -0.23768739       1.52631719       0.00000000
Si      -2.29984242       1.83790296      -2.11867567       0.00000000
Si      -0.47546763       1.35552348      -3.49453792       0.00000000
