10
Lattice="16.28999089631971 0.0 0.0 0.0 16.28999089631971 0.0 0.0 0.0 34.279985188174585" Properties=species:S:1:pos:R:3:initial_magmoms:R:1 pbc="T T T"
Si      -2.10515670       0.04439025       1.00032481       0.00000000
Si       1.43953101       0.29245437       1.81070411       0.00000000
Si       0.09791919      -2.29234509      -0.52571815       0.00000000
Si      -1.22495913       0.69361191      -2.46750899       0.00000000
Si      -3.09428550      -0.02283858      -1.10515306       0.00000000
Si      -0.16167825       3.43173285      -0.20225203       0.00000000
Si      -0.36981558      -2.98592442       1.70957810       0.00000000
Si       1.77968250      -1.94175171      -2.37817530       0.00000000
Si       1.11544146      -1.71460395       2.94108725       0.00000000
Si       2.90861208       0.26889903      -2.08501270       0.00000000
