10
Lattice="16.28999089631971 0.0 0.0 0.0 16.28999089631971 0.0 0.0 0.0 34.279985188174585" Properties=species:S:1:pos:R:3:initial_magmoms:R:1 pbc="T T T"
Si      -0.24125490      -1.89482022       1.38131278       0.00000000
Si      -0.39816018      -0.66355686      -2.22669196       0.00000000
Si      -1.80270027       1.40341608       0.75357734       0.00000000
Si       2.13377823       0.86333742      -0.71254417       0.00000000
Si      -2.35667430      -2.46475845       0.51488567       0.00000000
Si      -3.44131137      -0.28939185       0.36055709       0.00000000
Si       2.01689748       2.86394490       0.49400914       0.00000000
Si       1.11992121      -2.43175491      -2.57833625       0.00000000
Si       1.61834634      -3.30613695       0.95785188       0.00000000
Si      -0.73391337       1.35003375      -3.48332836       0.00000000
