10
Lattice="16.28999089631971 0.0 0.0 0.0 16.28999089631971 0.0 0.0 0.0 34.279985188174585" Properties=species:S:1:pos:R:3:initial_magmoms:R:1 pbc="T T T"
Si      -1.33835382       1.34236116      -1.44428514       0.00000000
Si       2.17173393       0.47377836       0.93803804       0.00000000
Si       1.36511829      -1.38818493      -1.42920194       0.00000000
Si      -1.21603221      -1.46114784       1.49313415       0.00000000
Si       1.62049662      -0.21519090       3.17155172       0.00000000
Si      -2.63316447      -2.65520484      -0.09485277       0.00000000
Si      -2.51307459       0.20952198       2.78905543       0.00000000
Si       0.49156704      -2.42584164       2.87838912       0.00000000
Si      -2.68851789       2.75700105      -0.05323685       0.00000000
Si       0.02023218       2.68864821      -2.81445692       0.00000000
