10
Lattice="16.28999089631971 0.0 0.0 0.0 16.28999089631971 0.0 0.0 0.0 34.279985188174585" Properties=species:S:1:pos:R:3:initial_magmoms:R:1 pbc="T T T"
Si       0.10722078      -1.69560981       1.56673332       0.00000000
Si      -1.29818268      -0.33705639      -1.88851972       0.00000000
Si       1.99370052       0.24636996      -1.18348287       0.00000000
Si      -1.01382444       1.61385030       1.38412374       0.00000000
Si       0.30302658      -3.47633487       0.12443642       0.00000000
Si      -2.10067695      -1.69111377       2.31359177       0.00000000
Si       2.15547651       2.59784775      -1.14505499       0.00000000
Si      -0.49401054       1.02524373      -3.54146725       0.00000000
Si       3.71426661      -0.33708897       0.26793251       0.00000000
Si      -3.50078616      -0.18467973      -1.31532377       0.00000000
