10
Lattice="16.28999089631971 0.0 0.0 0.0 16.28999089631971 0.0 0.0 0.0 34.279985188174585" Properties=species:S:1:pos:R:3:initial_magmoms:R:1 pbc="T T T"
Si      -2.20260348       0.15237666       0.57319595       0.00000000
Si       0.80417214       1.36230012      -1.65294753       0.00000000
Si       1.29818268       0.33705639       1.88851972       0.00000000
Si       2.90297574       0.03008763      -1.57403496       0.00000000
Si       3.29188320       0.58342635       0.70503685       0.00000000
Si       0.16167825      -3.43173285       0.20225203       0.00000000
Si      -2.25471519      -1.41459102       2.35342514       0.00000000
Si      -1.06328088      -2.73812094      -2.26525697       0.00000000
Si      -3.38283027      -0.40742919      -1.54667952       0.00000000
Si       0.28435824       1.95090669       3.27264345       0.00000000
