10
Lattice="16.28999089631971 0.0 0.0 0.0 16.28999089631971 0.0 0.0 0.0 34.279985188174585" Properties=species:S:1:pos:R:3:initial_magmoms:R:1 pbc="T T T"
Si       1.75225014      -0.77957424       1.36654636       0.00000000
Si      -0.94778478       1.95789510       1.12249874       0.00000000
Si      -1.50345297      -1.93085370      -0.11147857       0.00000000
Si       1.76393007      -1.62719181      -2.50014356       0.00000000
Si       0.35210835      -2.07458037       2.76137917       0.00000000
Si       2.86984188      -1.99080090      -0.28630660       0.00000000
Si      -2.26613448       0.73621026       2.60655010       0.00000000
Si      -3.35034801      -0.84414780       1.17395303       0.00000000
Si      -0.13989852       3.09335697      -2.13228483       0.00000000
Si      -0.16076601      -0.59137587      -3.73706895       0.00000000
