10
Lattice="16.28999089631971 0.0 0.0 0.0 16.28999089631971 0.0 0.0 0.0 34.279985188174585" Properties=species:S:1:pos:R:3:initial_magmoms:R:1 pbc="T T T"
Si       1.27267254      -1.31310432       1.56118339       0.00000000
Si      -1.41434667      -1.42501662      -1.34167964       0.00000000
Si       1.90413810       0.74953548      -1.43924054       0.00000000
Si      -1.41183801       1.38997768       1.54619617       0.00000000
Si       2.66984955       2.61296391       0.00324974       0.00000000
Si       2.61133587      -2.71712313       0.21303652       0.00000000
Si      -2.73269637      -2.64670146       0.14237171       0.00000000
Si       2.64196107       0.04429251       2.93428610       0.00000000
Si      -2.85656553       2.72181858       0.21305366       0.00000000
Si      -0.06867864      -2.67046857       2.93517738       0.00000000
