10
Lattice="16.28999089631971 0.0 0.0 0.0 16.28999089631971 0.0 0.0 0.0 34.279985188174585" Properties=species:S:1:pos:R:3:initial_magmoms:R:1 pbc="T T T"
Si       1.48240629      -1.22665329      -1.28028960       0.00000000
Si      -1.57723038       1.31953465      -1.13281702       0.00000000
Si      -0.03665250      -1.52860473       1.78519979       0.00000000
Si       0.67028463       1.90653992       1.25632788       0.00000000
Si      -1.86577515      -0.54851688       2.75487827       0.00000000
Si      -1.33478631       1.74201092       2.66876690       0.00000000
Si      -0.13621698      -2.46171222      -2.62077489       0.00000000
Si       2.72015307      -2.58211161       0.33817224       0.00000000
Si      -0.32127138       2.87717957      -2.42435047       0.00000000
Si       2.80083744       0.31895447      -2.51567240       0.00000000
