10
Lattice="16.28999089631971 0.0 0.0 0.0 16.28999089631971 0.0 0.0 0.0 34.279985188174585" Properties=species:S:1:pos:R:3:initial_magmoms:R:1 pbc="T T T"
Si       1.63672146       1.14417702       1.20494215       0.00000000
Si      -1.36704051       1.55069397      -1.08201406       0.00000000
Si       1.01382444      -1.61385030      -1.38412374       0.00000000
Si      -1.31266449      -1.08848151       1.67996017       0.00000000
Si       1.12104522      -3.30946011       0.18260958       0.00000000
Si      -1.60930539       3.06693459       0.67867553       0.00000000
Si       0.48423654       3.08824191       1.70772698       0.00000000
Si      -1.08685251      -3.30496407       0.92946804       0.00000000
Si      -3.20406381       0.23320764      -1.73881894       0.00000000
Si       3.37698216       1.65853377      -0.27396579       0.00000000
