10
Lattice="16.28999089631971 0.0 0.0 0.0 16.28999089631971 0.0 0.0 0.0 34.279985188174585" Properties=species:S:1:pos:R:3:initial_magmoms:R:1 pbc="T T T"
Si       0.78411915      -2.16104769       0.18031282       0.00000000
Si       0.93307491       0.74342673      -2.00123237       0.00000000
Si      -2.31948423      -0.20979891      -0.18483778       0.00000000
Si      -0.29967084       1.56934602       1.76408330       0.00000000
Si      -2.59621875       1.14582231       1.68863301       0.00000000
Si      -0.14823900       3.33926334       0.24386795       0.00000000
Si       3.19169970       0.70071435      -1.39721870       0.00000000
Si       0.10638999       2.91045010      -2.06338202       0.00000000
Si      -2.61708624      -2.53891053       0.08384889       0.00000000
Si       2.77679340      -2.10844728       1.35159201       0.00000000
