10
Lattice="16.28999089631971 0.0 0.0 0.0 16.28999089631971 0.0 0.0 0.0 34.279985188174585" Properties=species:S:1:pos:R:3:initial_magmoms:R:1 pbc="T T T"
Si      -1.31834970      -1.22168484       1.48405136       0.00000000
Si       1.41434667       1.42501662       1.34167964       0.00000000
Si      -1.08419724       1.30955310      -1.74639482       0.00000000
Si       0.94778478      -1.95789510      -1.12249874       0.00000000
Si       0.80788626       1.13546187      -3.25478357       0.00000000
Si      -2.40256323      -2.80204290       0.05145429       0.00000000
Si       2.70003492      -2.73746934       0.24404762       0.00000000
Si      -0.02399517      -2.59201593       2.92010244       0.00000000
Si       2.68701921       0.11191230       2.90286303       0.00000000
Si       3.31848477       2.17455210      -0.09756089       0.00000000
