10
Lattice="16.28999089631971 0.0 0.0 0.0 16.28999089631971 0.0 0.0 0.0 34.279985188174585" Properties=species:S:1:pos:R:3:initial_magmoms:R:1 pbc="T T T"
Si       1.27172772      -1.41914716      -1.33574094       0.00000000
Si       1.35956340       1.34305922       1.35630894       0.00000000
Si      -1.35734796      -1.36982104       1.35887994       0.00000000
Si      -1.32945948       1.19885037      -1.57215642       0.00000000
Si      -2.09517093      -0.66457807      -3.01464670       0.00000000
Si      -0.27841239      -2.52800746      -2.81997055       0.00000000
Si      -2.70480789       2.68579342      -0.03954541       0.00000000
Si       2.91949773      -0.21984478      -2.44893917       0.00000000
Si       0.00242721       2.70120376       2.71722511       0.00000000
Si       2.70588303       2.71778698      -0.02856210       0.00000000
