10
Lattice="16.28999089631971 0.0 0.0 0.0 16.28999089631971 0.0 0.0 0.0 34.279985188174585" Properties=species:S:1:pos:R:3:initial_magmoms:R:1 pbc="T T T"
Si       1.81833867       1.44181161       0.15789370       0.00000000
Si       0.14388957      -1.58801925       1.72318726       0.00000000
Si      -0.35083773      -1.27228158      -1.96540977       0.00000000
Si      -1.67850531       1.40814018       0.98757265       0.00000000
Si      -1.98400797      -2.44473641       1.40328626       0.00000000
Si      -1.72937898      -2.87354965      -0.90396371       0.00000000
Si       2.25855963       1.04203872       2.49315044       0.00000000
Si      -0.58078737       3.46410108       1.42714514       0.00000000
Si       1.14676713       3.64519701      -0.23231559       0.00000000
Si      -3.42513540       1.63556487      -0.59215280       0.00000000
