10
Lattice="16.28999089631971 0.0 0.0 0.0 16.28999089631971 0.0 0.0 0.0 34.279985188174585" Properties=species:S:1:pos:R:3:initial_magmoms:R:1 pbc="T T T"
Si      -1.35674523      -1.35694071       1.35666545       0.00000000
Si       1.35788553       1.35812988       1.35618553       0.00000000
Si      -1.35698958       1.35764118      -1.35779669       0.00000000
Si       1.35808101      -1.35723393      -1.35786525       0.00000000
Si      -2.71065600      -0.00232947       2.71466782       0.00000000
Si      -2.71397916       2.71454931       0.00027424       0.00000000
Si      -2.71420722      -2.71437012      -0.00006856       0.00000000
Si       0.00110772      -2.71529865      -2.71429074       0.00000000
Si       2.71536220      -2.71492398       0.00030852       0.00000000
Si       0.00115659      -2.71254564       2.71823294       0.00000000
