10
Lattice="16.28999089631971 0.0 0.0 0.0 16.28999089631971 0.0 0.0 0.0 34.279985188174585" Properties=species:S:1:pos:R:3:initial_magmoms:R:1 pbc="T T T"
Si       0.55123731       0.68896926      -2.23351368       0.00000000
Si       1.73222973      -0.49896270       1.59422588       0.00000000
Si      -1.12892958      -2.21065074      -0.29316260       0.00000000
Si       2.39660109      -1.18302867      -1.77796671       0.00000000
Si      -0.16731459       3.19292145       0.30872572       0.00000000
Si      -2.83652883      -1.24595694      -1.67841757       0.00000000
Si      -1.62049662       0.21519090      -3.17155172       0.00000000
Si      -2.90861208      -0.26889903       2.08501270       0.00000000
Si       0.80871705      -0.41725206       3.77162320       0.00000000
Si      -2.81069289      -2.56124412       1.55929456       0.00000000
