10
Lattice="16.28999089631971 0.0 0.0 0.0 16.28999089631971 0.0 0.0 0.0 34.279985188174585" Properties=species:S:1:pos:R:3:initial_magmoms:R:1 pbc="T T T"
Si       1.37340990       1.37898108       1.35378593       0.00000000
Si       1.41288057      -1.28619324      -1.44575918       0.00000000
Si      -1.29590371       1.42472340      -1.44082286       0.00000000
Si      -1.39262884      -1.30777749       1.67324129       0.00000000
Si       2.01989484      -0.61501266       2.40913015       0.00000000
Si      -2.56099358       2.73862593       0.13197802       0.00000000
Si       2.80267821      -2.59556715      -0.00209108       0.00000000
Si       0.05657517      -2.64153753      -2.82381536       0.00000000
Si      -2.65949892       0.07683993      -2.81942752       0.00000000
Si      -2.65110258      -2.83255407       0.21123339       0.00000000
