10
Lattice="16.28999089631971 0.0 0.0 0.0 16.28999089631971 0.0 0.0 0.0 34.279985188174585" Properties=species:S:1:pos:R:3:initial_magmoms:R:1 pbc="T T T"
Si      -1.83049101       1.46655612      -0.15350586       0.00000000
Si      -1.09771794      -2.05596090      -0.43957250       0.00000000
Si       1.72755450       0.18109593      -1.65946073       0.00000000
Si       1.12935312       0.62788176       2.24071248       0.00000000
Si       2.39912604      -2.02228947      -1.26925144       0.00000000
Si       2.03005980       2.62743039       1.39307082       0.00000000
Si      -1.43018055       2.34465228      -2.35267098       0.00000000
Si       3.07643166       1.95455565      -0.57878359       0.00000000
Si       0.58078737      -3.46410108      -1.42714514       0.00000000
Si       2.83934700      -2.42206236       1.06600530       0.00000000
