10
Lattice="16.28999089631971 0.0 0.0 0.0 16.28999089631971 0.0 0.0 0.0 34.279985188174585" Properties=species:S:1:pos:R:3:initial_magmoms:R:1 pbc="T T T"
Si       0.67157154      -2.20338540       0.39020929       0.00000000
Si      -1.72755450      -0.18109593       1.65946073       0.00000000
Si       1.34887716       1.77345972       1.08067714       0.00000000
Si      -0.53225946      -0.08325819      -2.44423287       0.00000000
Si       0.80011593       3.49314615      -0.32171784       0.00000000
Si       1.57547106       0.66544650      -3.24024885       0.00000000
Si       2.49594633      -2.68576488      -0.98565296       0.00000000
Si      -2.82527244      -2.23705683       1.21988823       0.00000000
Si      -1.14676713      -3.64519701       0.23231559       0.00000000
Si      -3.15773505       2.16355635      -0.69321025       0.00000000
