10
Lattice="16.28999089631971 0.0 0.0 0.0 16.28999089631971 0.0 0.0 0.0 34.279985188174585" Properties=species:S:1:pos:R:3:initial_magmoms:R:1 pbc="T T T"
Si      -1.35568638      -1.35744570      -1.35591129       0.00000000
Si      -1.35330804       1.35685926       1.36146465       0.00000000
Si       1.35886293       1.35824391      -1.35563705       0.00000000
Si       1.35954711      -1.35812988       1.36245877       0.00000000
Si      -2.71366965       0.00071676      -2.71381082       0.00000000
Si       0.00130320      -2.71435383      -2.71398222       0.00000000
Si       0.00117288       2.71581993      -2.71339946       0.00000000
Si      -2.71419093      -2.71526607       0.00181684       0.00000000
Si      -2.71497285       2.71502172       0.00106268       0.00000000
Si       2.71617831      -2.71386513       0.00000000       0.00000000
