10
Lattice="16.28999089631971 0.0 0.0 0.0 16.28999089631971 0.0 0.0 0.0 34.279985188174585" Properties=species:S:1:pos:R:3:initial_magmoms:R:1 pbc="T T T"
Si      -0.55123731      -0.68896926       2.23351368       0.00000000
Si      -2.17173393      -0.47377836      -0.93803804       0.00000000
Si       0.71672742       2.16365409      -0.86231351       0.00000000
Si       1.84536378      -1.87199793       0.45554698       0.00000000
Si      -0.80661564      -1.86196329      -2.36723998       0.00000000
Si       1.94857722       0.84781305      -2.37563858       0.00000000
Si       0.42391467      -3.37457124      -0.81558986       0.00000000
Si       3.37272756      -0.54825624      -0.79766142       0.00000000
Si      -0.71855190       2.50395219       2.54223940       0.00000000
Si       0.56135340      -0.50011929      -3.75150084       0.00000000
