10
Lattice="16.28999089631971 0.0 0.0 0.0 16.28999089631971 0.0 0.0 0.0 34.279985188174585" Properties=species:S:1:pos:R:3:initial_magmoms:R:1 pbc="T T T"
Si       2.10562489       0.55056942       0.88617239       0.00000000
Si      -0.29053215      -2.02439088      -1.20418799       0.00000000
Si      -1.29639078      -0.76519017       1.86085576       0.00000000
Si      -0.88148448       2.04397146      -0.88795495       0.00000000
Si      -2.57316840      -1.74263904      -1.40589154       0.00000000
Si      -3.28906503      -0.81779058       0.68957657       0.00000000
Si       0.25822908      -3.74407731       0.19820699       0.00000000
Si      -0.78814278      -3.07120257       2.17006140       0.00000000
Si       3.27885839       1.94904963      -0.61700580       0.00000000
Si      -0.51787539       3.77063001       0.72025717       0.00000000
