10
Lattice="16.28999089631971 0.0 0.0 0.0 16.28999089631971 0.0 0.0 0.0 34.279985188174585" Properties=species:S:1:pos:R:3:initial_magmoms:R:1 pbc="T T T"
Si       0.37470258       2.14775246       0.96446792       0.00000000
Si       2.22004097      -0.85364487       0.31825556       0.00000000
Si      -0.96943419      -2.03497938       0.96652472       0.00000000
Si      -0.60196437       1.05588522      -2.13972359       0.00000000
Si       0.77177526       1.25815815       3.06084620       0.00000000
Si       2.02153591      -2.16417537      -1.97380837       0.00000000
Si      -2.42613486      -1.05000453       2.68981482       0.00000000
Si       1.30819193       2.28856648      -2.81034332       0.00000000
Si      -1.38047976      -3.47993496      -0.99912501       0.00000000
Si       3.80833226       0.87376302      -0.20283479       0.00000000
