10
Lattice="16.28999089631971 0.0 0.0 0.0 16.28999089631971 0.0 0.0 0.0 34.279985188174585" Properties=species:S:1:pos:R:3:initial_magmoms:R:1 pbc="T T T"
Si       1.18567091       1.48942728       1.39909180       0.00000000
Si      -0.43110738       0.61664166      -2.25682409       0.00000000
Si      -1.64816586      -1.21293711       1.45623999       0.00000000
Si      -0.84482451      -1.34140005      -3.47311292       0.00000000
Si      -2.55481839       1.70854407      -2.29840573       0.00000000
Si       2.62791746       2.80663668      -0.16934322       0.00000000
Si       2.49153758       0.10430487       3.01278186       0.00000000
Si      -0.22371939      -2.60016093       3.02509524       0.00000000
Si      -3.02058207       2.75476932      -0.05179709       0.00000000
Si      -3.23170047      -2.50646085       0.00983836       0.00000000
