10
Lattice="16.28999089631971 0.0 0.0 0.0 16.28999089631971 0.0 0.0 0.0 34.279985188174585" Properties=species:S:1:pos:R:3:initial_magmoms:R:1 pbc="T T T"
Si       1.35734796       1.35685926       1.35652833       0.00000000
Si      -1.35779756      -1.35609363       1.35721393       0.00000000
Si       1.35731538      -1.35726651      -1.35786525       0.00000000
Si      -1.35756787       1.35752715      -1.35755673       0.00000000
Si      -2.71548327       0.00201996       2.71264530       0.00000000
Si       2.71438641      -0.00032580      -2.71528486       0.00000000
Si      -2.71488789      -2.71489140       0.00020568       0.00000000
Si       2.71497285      -2.71492398      -0.00020568       0.00000000
Si      -2.71484122       2.71508688      -0.00030852       0.00000000
Si       2.71485882       2.71508688      -0.00006856       0.00000000
