10
Lattice="16.28999089631971 0.0 0.0 0.0 16.28999089631971 0.0 0.0 0.0 34.279985188174585" Properties=species:S:1:pos:R:3:initial_magmoms:R:1 pbc="T T T"
Si       1.35779756       1.35609363      -1.35721393       0.00000000
Si      -1.35768570       1.35811359       1.35543137       0.00000000
Si      -1.35709033      -1.35879777      -1.35700825       0.00000000
Si       1.35817223      -1.35956340       1.35964781       0.00000000
Si      -2.68434506      -0.01216863       2.73725835       0.00000000
Si      -2.71418834       2.71349046      -0.00071988       0.00000000
Si       2.71514552       2.71295289      -0.00068560       0.00000000
Si       0.00022969       2.71362078      -2.71477066       0.00000000
Si      -2.71451414      -0.00149868      -2.71528486       0.00000000
Si       2.71511294      -0.00117288      -2.71507918       0.00000000
