10
Lattice="16.28999089631971 0.0 0.0 0.0 16.28999089631971 0.0 0.0 0.0 34.279985188174585" Properties=species:S:1:pos:R:3:initial_magmoms:R:1 pbc="T T T"
Si      -1.24445337       1.90566936      -0.65018884       0.00000000
Si      -0.73334322      -2.04968925      -1.08012866       0.00000000
Si       2.20823982       1.08144423      -0.48811298       0.00000000
Si      -0.58319829      -0.54364617       2.45160307       0.00000000
Si       1.21062393       0.96011631       2.90451049       0.00000000
Si      -1.04594832       3.21619986       1.64187509       0.00000000
Si      -3.35007827       1.35509994      -1.53636123       0.00000000
Si      -0.07121988       3.30414957      -2.15336703       0.00000000
Si      -0.22849983      -2.05141599      -3.37630619       0.00000000
Si       2.03113494       2.33689824      -2.51676936       0.00000000
