10
Lattice="16.28999089631971 0.0 0.0 0.0 16.28999089631971 0.0 0.0 0.0 34.279985188174585" Properties=species:S:1:pos:R:3:initial_magmoms:R:1 pbc="T T T"
Si       1.15645968       0.30947742       2.06410190       0.00000000
Si      -0.79796076       1.86530274      -1.34120517       0.00000000
Si      -1.36906861      -2.04079491       0.36439645       0.00000000
Si       1.78253325      -0.99611721      -1.44778170       0.00000000
Si       2.71881729      -0.95314419       0.68505161       0.00000000
Si      -1.87012450       0.17754471      -2.72419767       0.00000000
Si      -3.02198138      -1.25867943      -1.19191575       0.00000000
Si       0.87967629       2.65181652       2.16563927       0.00000000
Si       0.75909771      -2.69309538      -2.77949131       0.00000000
Si       0.87617394       2.79094941      -2.80784088       0.00000000
