10
Lattice="10.86 0.0 0.0 0.0 10.86 0.0 0.0 0.0 10.86" Properties=species:S:1:pos:R:3:initial_magmoms:R:1 pbc="T T T"
Si       0.83504712      -1.86884310      -0.76742190       0.00000000
Si      -1.87995288       0.84615690      -0.76742190       0.00000000
Si       0.83504712       0.84615690       1.94757810       0.00000000
Si       2.19254712      -0.51134310      -2.12492190       0.00000000
Si      -0.52245288       2.20365690      -2.12492190       0.00000000
Si       2.19254712       2.20365690       0.59007810       0.00000000
Si       0.83504712       0.84615690      -3.48242190       0.00000000
Si       3.55004712       0.84615690      -0.76742190       0.00000000
Si       0.83504712       3.56115690      -0.76742190       0.00000000
Si      -0.52245288      -3.22634310      -2.12492190       0.00000000
