10
Lattice="10.86 0.0 0.0 0.0 10.86 0.0 0.0 0.0 10.86" Properties=species:S:1:pos:R:3:initial_magmoms:R:1 pbc="T T T"
Si       1.04208216      -1.17083832      -1.50394710       0.00000000
Si       1.04208216       1.54416168       1.21105290       0.00000000
Si      -1.67291784      -1.17083832       1.21105290       0.00000000
Si       2.39958216      -2.52833832      -0.14644710       0.00000000
Si       2.39958216       0.18666168       2.56855290       0.00000000
Si      -0.31541784      -2.52833832       2.56855290       0.00000000
Si       2.39958216       0.18666168      -2.86144710       0.00000000
Si       2.39958216       2.90166168      -0.14644710       0.00000000
Si      -0.26128074      -2.56394826      -2.88463320       0.00000000
Si      -0.31541784       2.90166168       2.56855290       0.00000000
