10
Lattice="16.28999089631971 0.0 0.0 0.0 16.28999089631971 0.0 0.0 0.0 34.51877397758722" Properties=species:S:1:pos:R:3:initial_magmoms:R:1 pbc="T T T"
Si      -1.50785127      -1.31362560      -1.31229893       0.00000000
Si       1.52865360       1.20585096      -1.41647665       0.00000000
Si      -1.32625035       1.37205783       1.53113976       0.00000000
Si       1.38259746      -1.32444216       1.53611046       0.00000000
Si      -0.09614358      -2.62656539      -2.79008299       0.00000000
Si      -2.74611281       2.67856470       0.11807498       0.00000000
Si      -2.72422231      -2.71603333       0.14676701       0.00000000
Si       2.87036316      -2.56751414       0.19174499       0.00000000
Si       2.76074775       2.71655298      -0.01394904       0.00000000
Si      -2.68166632       0.01879866       2.91440446       0.00000000
