10
Lattice="16.28999089631971 0.0 0.0 0.0 16.28999089631971 0.0 0.0 0.0 34.51877397758722" Properties=species:S:1:pos:R:3:initial_magmoms:R:1 pbc="T T T"
Si       1.22210838      -1.79303120      -0.76707662       0.00000000
Si       0.39561894       2.30728302       0.06862336       0.00000000
Si      -1.98972576      -0.34575851      -1.25216923       0.00000000
Si       0.06537177      -1.29401963       2.00944251       0.00000000
Si      -3.20139225       1.35221661      -0.14421952       0.00000000
Si      -1.62820179       2.99591019      -0.84132655       0.00000000
Si       3.38247189      -1.11848899      -0.12785761       0.00000000
Si       0.50451759      -3.56891813       1.09124261       0.00000000
Si       3.63276774       1.03164570       0.87874492       0.00000000
Si       1.20484098      -2.00341655      -3.09443722       0.00000000
