10
Lattice="16.28999089631971 0.0 0.0 0.0 16.28999089631971 0.0 0.0 0.0 34.51877397758722" Properties=species:S:1:pos:R:3:initial_magmoms:R:1 pbc="T T T"
Si       1.35736425      -1.35651717      -1.35952267       0.00000000
Si       1.36355445       1.34236116       1.36974024       0.00000000
Si      -1.35886293       1.35806472      -1.35914297       0.00000000
Si      -1.34193762      -1.38179925       1.37260530       0.00000000
Si      -2.66242131       0.00894321       2.69671169       0.00000000
Si       2.71262709      -2.71516833       0.00220920       0.00000000
Si      -2.71770957      -2.71178001       0.00265795       0.00000000
Si       2.71419093       0.00039096      -2.71652547       0.00000000
Si      -0.00125433      -2.71458189      -2.71645644       0.00000000
Si       2.71676475       2.71485882       0.00017259       0.00000000
