10
Lattice="16.28999089631971 0.0 0.0 0.0 16.28999089631971 0.0 0.0 0.0 34.51877397758722" Properties=species:S:1:pos:R:3:initial_magmoms:R:1 pbc="T T T"
Si      -1.93062564      -1.08198247       0.72475658       0.00000000
Si       1.02442923       1.05509353       1.91941750       0.00000000
Si       1.20458034      -1.90993801      -0.98130026       0.00000000
Si       0.15301197       1.89420772      -2.16132520       0.00000000
Si       3.33723456      -1.26467482      -0.18343287       0.00000000
Si       3.09935169      -0.17218041       1.92746038       0.00000000
Si      -1.54099327      -1.96881007       2.87379310       0.00000000
Si       1.21401225       3.36512956       1.34347143       0.00000000
Si       1.75097952       3.33719221      -1.02065168       0.00000000
Si      -3.90511115       0.22556600       0.57197640       0.00000000
