10
Lattice="16.28999089631971 0.0 0.0 0.0 16.28999089631971 0.0 0.0 0.0 34.51877397758722" Properties=species:S:1:pos:R:3:initial_magmoms:R:1 pbc="T T T"
Si      -1.64505656      -1.62907493       0.54125468       0.00000000
Si       1.39870827       0.48773889       1.86052844       0.00000000
Si       1.40827050      -0.36709515      -1.91344575       0.00000000
Si      -1.20511628       2.07407538      -0.20493808       0.00000000
Si       1.59785352       1.94294088      -2.48939181       0.00000000
Si      -0.16538423       1.41255477       3.38146099       0.00000000
Si      -1.15715200      -3.39099875      -0.95907015       0.00000000
Si      -1.57396586       2.75090859       2.04244248       0.00000000
Si      -1.36823783      -2.28668336       2.77089257       0.00000000
Si      -0.04675230       3.48356763      -1.68779640       0.00000000
