10
Lattice="16.28999089631971 0.0 0.0 0.0 16.28999089631971 0.0 0.0 0.0 34.51877397758722" Properties=species:S:1:pos:R:3:initial_magmoms:R:1 pbc="T T T"
Si       0.32619096      -2.36146356      -0.18357094       0.00000000
Si       1.27040823       0.75357540       1.88230980       0.00000000
Si      -2.23111098       0.79778646       0.39627575       0.00000000
Si       0.77980230       1.35940050      -1.85994162       0.00000000
Si       1.36331010      -0.48661488      -3.25840149       0.00000000
Si      -1.70696394       3.08151414       0.97225633       0.00000000
Si       0.29302452       2.88732105       2.26218912       0.00000000
Si       2.67107130      -2.65183281      -0.42213032       0.00000000
Si      -0.76036833      -1.47719349      -3.43634587       0.00000000
Si      -3.17837448      -0.60282774       2.10616417       0.00000000
