10
Lattice="16.28999089631971 0.0 0.0 0.0 16.28999089631971 0.0 0.0 0.0 34.51877397758722" Properties=species:S:1:pos:R:3:initial_magmoms:R:1 pbc="T T T"
Si      -1.35509994       1.35884664       1.36221514       0.00000000
Si       1.35889551      -1.35643572       1.36256033       0.00000000
Si      -1.35422028      -1.35094599      -1.39334764       0.00000000
Si       1.35967743       1.35863487      -1.39632316       0.00000000
Si      -2.71441899      -2.71215468       0.00072489       0.00000000
Si       2.71524978       2.71344159       0.00082845       0.00000000
Si      -2.71456560       2.71523349      -0.00003452       0.00000000
Si       2.71689507      -2.71420722       0.00586819       0.00000000
Si       0.00065160      -2.71415835       2.71990832       0.00000000
Si      -2.71435383       0.00128691       2.71980476       0.00000000
