10
Lattice="16.28999089631971 0.0 0.0 0.0 16.28999089631971 0.0 0.0 0.0 34.51877397758722" Properties=species:S:1:pos:R:3:initial_magmoms:R:1 pbc="T T T"
Si      -1.35327546       1.35622395      -1.36035112       0.00000000
Si      -1.35132066      -1.36042677       1.36684066       0.00000000
Si       1.36093176      -1.35953082      -1.36031661       0.00000000
Si       1.36304946       1.36826226       1.35879778       0.00000000
Si       0.05737338      -2.70865233       2.69553805       0.00000000
Si      -2.71147050      -0.00210141      -2.71714681       0.00000000
Si       2.71445157       2.71461447      -0.00300314       0.00000000
Si      -2.71562445       2.71427238      -0.00203661       0.00000000
Si       0.00343719       2.71322982      -2.71797526       0.00000000
Si      -2.71402803      -2.71805166       0.00134623       0.00000000
