10
Lattice="16.28999089631971 0.0 0.0 0.0 16.28999089631971 0.0 0.0 0.0 34.51877397758722" Properties=species:S:1:pos:R:3:initial_magmoms:R:1 pbc="T T T"
Si       0.47358288       2.26290906       0.69358611       0.00000000
Si       1.49089338      -1.69376904       0.89472712       0.00000000
Si      -1.35557235      -1.35365013       1.60805798       0.00000000
Si       1.99801737       0.21654297      -1.58848583       0.00000000
Si      -0.65334303      -2.66667300      -1.69438949       0.00000000
Si      -0.38133261      -3.25363428       0.55492412       0.00000000
Si       1.02672612      -1.47501063      -2.86940921       0.00000000
Si      -1.62502524       1.32538698      -2.69740206       0.00000000
Si      -0.47420190       3.09065283      -1.39376532       0.00000000
Si       3.49518240      -0.88467732      -0.10731893       0.00000000
