10
Lattice="16.28999089631971 0.0 0.0 0.0 16.28999089631971 0.0 0.0 0.0 34.51877397758722" Properties=species:S:1:pos:R:3:initial_magmoms:R:1 pbc="T T T"
Si      -0.47358288      -2.26290906      -0.69358611       0.00000000
Si      -1.84606425       0.90802089       1.27540037       0.00000000
Si       2.08819881       0.18407700       1.22514101       0.00000000
Si      -0.94778478       0.82774377      -2.08735143       0.00000000
Si       1.52443449      -2.04636609      -2.28207194       0.00000000
Si      -1.58897547       3.25984077       0.66648886       0.00000000
Si      -3.73617340      -0.30677328       0.20314310       0.00000000
Si       2.48805315       2.51613711       1.31085117       0.00000000
Si       0.61193385       1.81856673      -3.50500375       0.00000000
Si      -2.48332905       2.73567744      -1.60747116       0.00000000
