10
Lattice="16.28999089631971 0.0 0.0 0.0 16.28999089631971 0.0 0.0 0.0 34.51877397758722" Properties=species:S:1:pos:R:3:initial_magmoms:R:1 pbc="T T T"
Si      -0.97129125      -1.69155360      -1.28092338       0.00000000
Si       1.49716503      -1.10122029       1.48116690       0.00000000
Si       1.73464065       1.08523980      -1.29079576       0.00000000
Si      -1.99801737      -0.21654297       1.58848583       0.00000000
Si      -0.50712399      -1.91031201       2.48321295       0.00000000
Si      -1.52443449       2.04636609       2.28207194       0.00000000
Si      -2.37998529      -0.34332804      -2.60962077       0.00000000
Si       0.33438483       2.38536099      -2.61766365       0.00000000
Si       2.36892438       0.97845885       2.53557796       0.00000000
Si      -2.47221927       2.87410986       0.19472051       0.00000000
