10
Lattice="16.28999089631971 0.0 0.0 0.0 16.28999089631971 0.0 0.0 0.0 34.51877397758722" Properties=species:S:1:pos:R:3:initial_magmoms:R:1 pbc="T T T"
Si       0.13825323       0.51650703      -2.28393596       0.00000000
Si      -0.28626417       1.71406638       1.65724726       0.00000000
Si      -2.17759833      -0.90012024      -0.49872753       0.00000000
Si       1.86370632      -1.33463970       0.85333909       0.00000000
Si      -0.51697944      -1.60428807      -3.15909092       0.00000000
Si      -1.52187696      -2.91380859      -1.47094934       0.00000000
Si      -2.94993981      -1.39670460       1.60374314       0.00000000
Si      -1.66281804       1.99914138      -2.69063638       0.00000000
Si      -0.62305992       0.38747394       3.68553704       0.00000000
Si       2.28367881       1.23675309      -2.77703692       0.00000000
