10
Lattice="16.28999089631971 0.0 0.0 0.0 16.28999089631971 0.0 0.0 0.0 34.51877397758722" Properties=species:S:1:pos:R:3:initial_magmoms:R:1 pbc="T T T"
Si       2.03983380       1.01445975      -0.69127335       0.00000000
Si      -0.27199413      -1.93921047      -1.55500260       0.00000000
Si      -1.99699110       1.33732755      -0.95772392       0.00000000
Si       0.41653530      -0.96783777       2.38455824       0.00000000
Si       1.90202040      -2.78819640      -0.91060577       0.00000000
Si       1.34328969      -2.95463133       1.43166695       0.00000000
Si       1.18486944       2.97295758      -1.62887282       0.00000000
Si       2.62355337       2.50766631       1.22665984       0.00000000
Si      -2.27379078      -2.93340546      -0.96818311       0.00000000
Si      -3.83782626       0.03769506      -0.13752287       0.00000000
