10
Lattice="16.28999089631971 0.0 0.0 0.0 16.28999089631971 0.0 0.0 0.0 34.51877397758722" Properties=species:S:1:pos:R:3:initial_magmoms:R:1 pbc="T T T"
Si       1.35946566      -1.35638685       1.36224966       0.00000000
Si      -1.35747828       1.35917244       1.36273292       0.00000000
Si      -1.37790594      -1.33810947      -1.36693041       0.00000000
Si       1.37681451       1.37360538      -1.38059985       0.00000000
Si      -2.55220154       0.24122232      -2.81718228       0.00000000
Si      -2.71675823      -2.71073745       0.00189853       0.00000000
Si       2.71375110       2.71401174       0.00773221       0.00000000
Si      -2.71540942       2.71420722       0.00428033       0.00000000
Si       2.71456560      -2.71523349       0.00003452       0.00000000
Si       0.00021177      -2.71394658       2.71983928       0.00000000
