10
Lattice="16.28999089631971 0.0 0.0 0.0 16.28999089631971 0.0 0.0 0.0 34.51877397758722" Properties=species:S:1:pos:R:3:initial_magmoms:R:1 pbc="T T T"
Si      -0.98202636      -1.66052115      -1.37117073       0.00000000
Si       1.21173165      -1.51234731       1.44055209       0.00000000
Si      -1.52174664       1.19291670       1.44995156       0.00000000
Si       1.31962032       1.50931967      -1.43147507       0.00000000
Si      -1.24467003       0.39902355      -3.13842939       0.00000000
Si       2.67522525       2.67192720       0.10228954       0.00000000
Si      -2.71728440      -2.64473037       0.00396966       0.00000000
Si      -0.16521318       2.54276379       2.82391344       0.00000000
Si       2.54866824      -0.17194095       2.82888415       0.00000000
Si       2.58936066      -2.80368819      -0.16752316       0.00000000
