10
Lattice="16.28999089631971 0.0 0.0 0.0 16.28999089631971 0.0 0.0 0.0 34.51877397758722" Properties=species:S:1:pos:R:3:initial_magmoms:R:1 pbc="T T T"
Si       1.35505759      -1.35576783       1.35903941       0.00000000
Si      -1.35954271       1.35905841       1.35848711       0.00000000
Si      -1.36205644      -1.35703845      -1.36141430       0.00000000
Si       1.35541597       1.35325917      -1.38326470       0.00000000
Si       2.71159105      -2.71547621      -0.00103556       0.00000000
Si       2.71183540       0.00174303       2.71607673       0.00000000
Si      -2.71578802      -2.71301479      -0.00176046       0.00000000
Si      -0.00299410      -2.71326729       2.71624932       0.00000000
Si       2.71186798       2.71841004      -0.00303765       0.00000000
Si      -0.00313257       2.71639008       2.71628384       0.00000000
