10
Lattice="16.28999089631971 0.0 0.0 0.0 16.28999089631971 0.0 0.0 0.0 34.51877397758722" Properties=species:S:1:pos:R:3:initial_magmoms:R:1 pbc="T T T"
Si      -1.35140211      -1.34635221       1.36180091       0.00000000
Si      -1.35283563       1.35684297      -1.35983334       0.00000000
Si       1.36145304      -1.35904212      -1.35665761       0.00000000
Si       1.35456237       1.36366848       1.37094839       0.00000000
Si       0.04885371      -2.64647340       2.68866881       0.00000000
Si      -2.59828758       0.13321962       2.75653276       0.00000000
Si      -2.71122615       2.71301805      -0.00296862       0.00000000
Si      -2.71101438      -0.00138465      -2.71497213       0.00000000
Si       0.00405621       2.71349650      -2.71542087       0.00000000
Si      -2.71445157      -2.71461447       0.00300314       0.00000000
