10
Lattice="16.28999089631971 0.0 0.0 0.0 16.28999089631971 0.0 0.0 0.0 34.51877397758722" Properties=species:S:1:pos:R:3:initial_magmoms:R:1 pbc="T T T"
Si       0.59153877       0.69869439       2.16080742       0.00000000
Si       0.20460240       1.87115641      -1.42717951       0.00000000
Si      -2.23961436      -0.93709854       0.04618615       0.00000000
Si       1.93951998      -1.50978978      -0.29233966       0.00000000
Si       0.44248527       0.77866200      -3.53807275       0.00000000
Si       1.00457172      -1.41042078       3.21780739       0.00000000
Si      -2.46456297      -1.59334119       2.33740557       0.00000000
Si      -2.08687932      -2.81136078      -1.40208434       0.00000000
Si      -1.87032006       3.09843035      -1.43522239       0.00000000
Si       3.54019167      -0.34125921      -1.65410605       0.00000000
