10
Lattice="16.28999089631971 0.0 0.0 0.0 16.28999089631971 0.0 0.0 0.0 34.51877397758722" Properties=species:S:1:pos:R:3:initial_magmoms:R:1 pbc="T T T"
Si      -1.35681039      -1.35495284      -1.35848711       0.00000000
Si       1.35977517      -1.35452601       1.35700280       0.00000000
Si       1.35826020       1.35958132      -1.35834903       0.00000000
Si      -1.36006839       1.36290448       1.36038564       0.00000000
Si       2.69848737      -0.00257382       2.72180685       0.00000000
Si      -2.71370223      -2.71160638      -0.00289958       0.00000000
Si      -2.72561022       0.00190267       2.70182047       0.00000000
Si       0.00091224      -2.71274668      -2.71531732       0.00000000
Si       2.71469592      -2.71351231      -0.00176046       0.00000000
Si      -2.71427238       0.00217960      -2.71514472       0.00000000
