10
Lattice="16.28999089631971 0.0 0.0 0.0 16.28999089631971 0.0 0.0 0.0 34.51877397758722" Properties=species:S:1:pos:R:3:initial_magmoms:R:1 pbc="T T T"
Si      -1.62362430      -0.94832072       1.41180971       0.00000000
Si       0.95892714       1.60243101       1.47494458       0.00000000
Si      -0.94864815       1.84221981      -1.31685744       0.00000000
Si       1.86663852      -2.02387123       0.02682110       0.00000000
Si      -1.23351138      -2.54545001      -1.66556629       0.00000000
Si       2.33173431       0.28199619       2.78632389       0.00000000
Si       2.33388459      -0.21978468      -2.79626389       0.00000000
Si      -2.97922923      -2.11092825      -0.12195490       0.00000000
Si       2.31360354       2.83403646      -0.03175729       0.00000000
Si      -0.39441348      -2.45030955       2.76289944       0.00000000
