10
Lattice="16.28999089631971 0.0 0.0 0.0 16.28999089631971 0.0 0.0 0.0 34.51877397758722" Properties=species:S:1:pos:R:3:initial_magmoms:R:1 pbc="T T T"
Si      -2.16036351      -0.67454220      -0.63921901       0.00000000
Si       1.04697459      -0.55256268       2.04692992       0.00000000
Si       1.59022980      -0.16290588      -1.74654738       0.00000000
Si       0.25029585       2.15013469       1.00660253       0.00000000
Si       0.93172284      -2.77864005       1.17684922       0.00000000
Si       0.11293857      -1.60789404      -2.92070414       0.00000000
Si       0.39289851      -3.20766978      -1.16193710       0.00000000
Si      -3.38247189       1.11848899       0.12785761       0.00000000
Si       2.09277630       2.16683194      -2.06519036       0.00000000
Si      -2.17763091      -0.88492755      -2.96657961       0.00000000
