10
Lattice="16.28999089631971 0.0 0.0 0.0 16.28999089631971 0.0 0.0 0.0 34.51877397758722" Properties=species:S:1:pos:R:3:initial_magmoms:R:1 pbc="T T T"
Si      -1.35736425      -1.35819504       1.35696828       0.00000000
Si      -1.35738054       1.35729909      -1.35800385       0.00000000
Si       1.35733167      -1.35790182      -1.35755510       0.00000000
Si       1.35861858       1.35806472       1.35693376       0.00000000
Si       2.71464705      -0.00167787      -2.71400560       0.00000000
Si      -2.71454931      -0.00008145      -2.71455790       0.00000000
Si      -2.71467963       2.71472850      -0.00027615       0.00000000
Si      -0.00329058      -2.71184517       2.71807882       0.00000000
Si      -2.71480995      -2.71526607      -0.00024163       0.00000000
Si       2.71503801      -2.71516833      -0.00065586       0.00000000
