10
Lattice="16.28999089631971 0.0 0.0 0.0 16.28999089631971 0.0 0.0 0.0 34.51877397758722" Properties=species:S:1:pos:R:3:initial_magmoms:R:1 pbc="T T T"
Si       2.15788743      -0.09874998       0.87149597       0.00000000
Si      -0.96733278       1.91260890       1.10763904       0.00000000
Si      -1.65910392      -1.78267986       0.26203216       0.00000000
Si       1.34846991       0.30478590      -2.29525812       0.00000000
Si      -2.93993775       1.64328633      -0.04252715       0.00000000
Si       1.54722420      -0.39309399       3.11190373       0.00000000
Si      -3.46636539      -0.46340163       0.96462768       0.00000000
Si       3.09384567      -2.03416488      -0.15319440       0.00000000
Si      -0.64470933      -0.74609829       3.80183085       0.00000000
Si       3.50436996       1.79831826       0.29278840       0.00000000
