10
Lattice="16.28999089631971 0.0 0.0 0.0 16.28999089631971 0.0 0.0 0.0 34.51877397758722" Properties=species:S:1:pos:R:3:initial_magmoms:R:1 pbc="T T T"
Si      -2.19193353      -0.35300430       0.68992712       0.00000000
Si       0.91595412      -2.13614028       0.27159387       0.00000000
Si       0.61066323       0.29434401      -2.24040776       0.00000000
Si       0.20515626       2.06044065       1.19493707       0.00000000
Si      -1.54722420       0.39309399      -3.11190373       0.00000000
Si       3.17198880      -1.71492975       0.51522751       0.00000000
Si      -1.99689336      -0.43735392       3.01563082       0.00000000
Si      -0.62086077       1.44112743       3.32322778       0.00000000
Si      -3.30465456       1.72786401       0.17935965       0.00000000
Si       2.39924007       2.42005869       1.86625856       0.00000000
