10
Lattice="16.28999089631971 0.0 0.0 0.0 16.28999089631971 0.0 0.0 0.0 34.51877397758722" Properties=species:S:1:pos:R:3:initial_magmoms:R:1 pbc="T T T"
Si       1.13559219       1.13865471      -1.75414152       0.00000000
Si       0.17141967      -2.36314143      -0.45040121       0.00000000
Si      -0.55873071      -0.16643493       2.34227272       0.00000000
Si      -2.17401453       0.84898593      -0.64439683       0.00000000
Si      -1.90202040       2.78819640       0.91060577       0.00000000
Si       3.28606767      -1.20959766      -0.74667602       0.00000000
Si      -2.02562892      -2.98058130       0.07190265       0.00000000
Si       1.77042978      -0.59828283      -3.22964734       0.00000000
Si       2.17134297       3.01114134      -0.78847828       0.00000000
Si       0.13781340       3.80265615       0.21933241       0.00000000
