10
Lattice="16.28999089631971 0.0 0.0 0.0 16.28999089631971 0.0 0.0 0.0 34.51877397758722" Properties=species:S:1:pos:R:3:initial_magmoms:R:1 pbc="T T T"
Si      -0.92675439       1.98679356       0.95289129       0.00000000
Si       0.55873071       0.16643493      -2.34227272       0.00000000
Si       1.74996954      -1.03596255       1.30425808       0.00000000
Si      -1.51228215      -2.02777920       0.01915793       0.00000000
Si      -2.29687371       0.46574739       2.54213105       0.00000000
Si      -1.61528382       1.01542086      -2.98666955       0.00000000
Si      -1.34328969       2.95463133      -1.43166695       0.00000000
Si       0.73015038      -2.19670650      -2.79267393       0.00000000
Si       0.39529314      -2.26756800       2.81095996       0.00000000
Si      -3.52896786      -1.04495463       1.13960344       0.00000000
