10
Lattice="16.28999089631971 0.0 0.0 0.0 16.28999089631971 0.0 0.0 0.0 34.51877397758722" Properties=species:S:1:pos:R:3:initial_magmoms:R:1 pbc="T T T"
Si       1.26710136      -1.30888521       1.43667563       0.00000000
Si       1.75767471       1.02804561      -1.14442572       0.00000000
Si      -1.46297232       1.43700606       1.38300926       0.00000000
Si      -1.43640333      -1.13339304      -1.73449829       0.00000000
Si       2.63945241      -2.54674602      -0.06242379       0.00000000
Si       0.77061474       2.34211104      -2.89239669       0.00000000
Si       2.60892495       0.08114049       2.78440668       0.00000000
Si      -0.10575468      -2.63583603       2.78520061       0.00000000
Si      -2.80652265      -2.65443921      -0.14525853       0.00000000
Si       3.55024260      -0.62936415      -1.52186253       0.00000000
