10
Lattice="16.28999089631971 0.0 0.0 0.0 16.28999089631971 0.0 0.0 0.0 34.51877397758722" Properties=species:S:1:pos:R:3:initial_magmoms:R:1 pbc="T T T"
Si      -0.21255192       0.83911419       2.21179168       0.00000000
Si       1.72693548       1.00183500      -1.30481039       0.00000000
Si      -2.02178448       1.06772805      -0.67984763       0.00000000
Si       0.18033030      -2.39195844      -0.30186685       0.00000000
Si       0.94296294      -0.27349281      -3.35125704       0.00000000
Si      -3.47397282      -0.05708016       0.82744999       0.00000000
Si       1.93256415       0.35735373       3.04241740       0.00000000
Si      -2.22422031      -0.32871591       2.85718956       0.00000000
Si       0.08120565      -2.51032158      -2.68021170       0.00000000
Si      -1.69355727       3.41431884      -0.00462552       0.00000000
