10
Lattice="16.28999089631971 0.0 0.0 0.0 16.28999089631971 0.0 0.0 0.0 34.51877397758722" Properties=species:S:1:pos:R:3:initial_magmoms:R:1 pbc="T T T"
Si      -0.97145415      -0.24097797      -2.12632315       0.00000000
Si      -0.03108132      -2.20750677       0.84805771       0.00000000
Si       2.26157328       0.65513493      -0.23762737       0.00000000
Si      -1.51560531       1.18219788       1.47636879       0.00000000
Si      -1.44019890       2.07583470      -2.62653498       0.00000000
Si      -2.28517749      -2.48212359       1.41195672       0.00000000
Si       3.04300458       0.61121709       2.00171030       0.00000000
Si       2.15060580       2.93216742      -0.83797823       0.00000000
Si      -3.26256120      -0.34837794       1.79183604       0.00000000
Si      -0.30576330       1.48144518       3.46282178       0.00000000
