10
Lattice="16.28999089631971 0.0 0.0 0.0 16.28999089631971 0.0 0.0 0.0 34.51877397758722" Properties=species:S:1:pos:R:3:initial_magmoms:R:1 pbc="T T T"
Si      -2.25409617      -0.27461682       0.56389901       0.00000000
Si       0.52259949      -1.80154368      -1.43294415       0.00000000
Si       0.03108132       2.20750677      -0.84805771       0.00000000
Si       1.57806117      -0.93354732       1.57888960       0.00000000
Si      -1.73154555      -1.22321610       2.68863429       0.00000000
Si       2.21289876      -2.67048486       0.10338379       0.00000000
Si      -0.94037283       1.96652880      -2.97438086       0.00000000
Si      -1.48452399       3.38970465       0.62831108       0.00000000
Si       2.61381195       0.93893931       2.54455285       0.00000000
Si       2.29265460       2.86264170      -1.08568509       0.00000000
