10
Lattice="16.28999089631971 0.0 0.0 0.0 16.28999089631971 0.0 0.0 0.0 34.51877397758722" Properties=species:S:1:pos:R:3:initial_magmoms:R:1 pbc="T T T"
Si       0.98705997      -1.31406543       1.74797098       0.00000000
Si       1.17141390       1.80913482      -1.08499471       0.00000000
Si      -0.58371957      -1.49320656      -1.91793319       0.00000000
Si      -1.85070690       1.53440397       1.18931050       0.00000000
Si      -1.43868393       0.46529127      -2.85553265       0.00000000
Si       1.95978474       0.46770219       2.89198247       0.00000000
Si      -2.63826324       2.13734574      -1.04274371       0.00000000
Si       0.63258957       1.38010509      -3.42378103       0.00000000
Si      -0.77061474      -2.34211104       2.89239669       0.00000000
Si      -2.62355337      -2.50766631      -1.22665984       0.00000000
