10
Lattice="16.28999089631971 0.0 0.0 0.0 16.28999089631971 0.0 0.0 0.0 34.51877397758722" Properties=species:S:1:pos:R:3:initial_magmoms:R:1 pbc="T T T"
Si       1.36607940       1.35025486      -1.37087936       0.00000000
Si      -1.35456237      -1.36366848      -1.37094839       0.00000000
Si       1.28249541      -1.37469681       1.44927154       0.00000000
Si      -1.30544802       1.50085587       1.32873191       0.00000000
Si       2.70479160       2.70220705      -0.00607531       0.00000000
Si       2.71147050      -2.70244584      -0.00334832       0.00000000
Si      -2.70596448      -2.71002069      -0.00914748       0.00000000
Si       2.57668704       0.02722059       2.83917075       0.00000000
Si      -2.71930599       2.70668354      -0.02606169       0.00000000
Si       0.00630423       2.70478087      -2.72788216       0.00000000
