10
Lattice="16.28999089631971 0.0 0.0 0.0 16.28999089631971 0.0 0.0 0.0 34.51877397758722" Properties=species:S:1:pos:R:3:initial_magmoms:R:1 pbc="T T T"
Si       1.86030171       1.15730676      -0.81743954       0.00000000
Si      -0.66505554       1.06386732       1.97378460       0.00000000
Si      -1.50876351       0.28859364      -1.77730363       0.00000000
Si       0.11096748      -2.27703249       0.60035085       0.00000000
Si      -0.04600296      -0.62832159      -3.43793373       0.00000000
Si       1.73283246       0.90033201      -3.17158673       0.00000000
Si      -2.15060580      -2.93216742       0.83797823       0.00000000
Si       0.89239878      -2.32095033       2.83968853       0.00000000
Si      -0.38509560      -0.53590842       3.73255163       0.00000000
Si      -1.87124859       2.64980228      -2.19177078       0.00000000
