10
Lattice="16.28999089631971 0.0 0.0 0.0 16.28999089631971 0.0 0.0 0.0 34.51877397758722" Properties=species:S:1:pos:R:3:initial_magmoms:R:1 pbc="T T T"
Si      -2.07127350      -0.91481382       0.56824837       0.00000000
Si       1.27749438      -1.78504191      -0.89286311       0.00000000
Si      -0.27995994       1.59977574      -1.75876704       0.00000000
Si       0.53882433       0.42902973       2.33878632       0.00000000
Si       1.19733129       3.04476390      -0.58461028       0.00000000
Si      -0.39289851       3.20766978       1.16193710       0.00000000
Si      -1.21630914      -2.87331165       1.50584784       0.00000000
Si       0.49606308      -1.74112407      -3.13220078       0.00000000
Si      -2.55326202       2.53312758       0.52271809       0.00000000
Si       2.86172946       0.28727415       2.25304164       0.00000000
