10
Lattice="16.28999089631971 0.0 0.0 0.0 16.28999089631971 0.0 0.0 0.0 34.51877397758722" Properties=species:S:1:pos:R:3:initial_magmoms:R:1 pbc="T T T"
Si       1.35646830       1.35718724       1.35793481       0.00000000
Si      -1.35780408       1.35779323      -1.35696828       0.00000000
Si       1.35803214      -1.35745722      -1.35745155       0.00000000
Si      -1.35870003      -1.35794592       1.35651954       0.00000000
Si      -2.71362078       0.00104038       2.71528280       0.00000000
Si      -2.71505430       0.00050976      -2.71414368       0.00000000
Si      -2.71464705      -2.71504953      -0.00013808       0.00000000
Si       0.00026064      -2.71501695      -2.71490309       0.00000000
Si      -0.00105885       2.71579930      -2.71435079       0.00000000
Si      -2.71513575       2.71514770      -0.00006904       0.00000000
