10
Lattice="16.28999089631971 0.0 0.0 0.0 16.28999089631971 0.0 0.0 0.0 34.51877397758722" Properties=species:S:1:pos:R:3:initial_magmoms:R:1 pbc="T T T"
Si       1.35452719      -1.35140211       1.35807288       0.00000000
Si      -1.35557235      -1.35521397      -1.35627791       0.00000000
Si      -1.35275418       1.35886293       1.35993690       0.00000000
Si       1.35897261       1.35933534      -1.35558753       0.00000000
Si       0.00203625      -2.71261080      -2.71328071       0.00000000
Si      -2.71311579      -2.71365336       0.00103556       0.00000000
Si      -2.71352304       0.00267156      -2.71355686       0.00000000
Si       2.71740236      -2.71112841       0.00162238       0.00000000
Si       2.71646731       0.00241092      -2.71345330       0.00000000
Si      -0.00400734      -2.71200807       2.71849305       0.00000000
