10
Lattice="16.28999089631971 0.0 0.0 0.0 16.28999089631971 0.0 0.0 0.0 34.51877397758722" Properties=species:S:1:pos:R:3:initial_magmoms:R:1 pbc="T T T"
Si       1.31737230      -1.36808307      -1.40139397       0.00000000
Si      -1.40555007       1.36620972      -1.37025802       0.00000000
Si       1.84422348       0.75562794       1.38630926       0.00000000
Si      -1.02012867      -1.79724312       1.30981561       0.00000000
Si       0.74572362       0.72617562       3.60880176       0.00000000
Si       2.53879650      -2.77799886       0.05592045       0.00000000
Si       2.67590683      -0.00747711      -2.76181413       0.00000000
Si      -1.24502841      -0.86420079       3.53496606       0.00000000
Si      -0.03137454       2.70278793      -2.75995012       0.00000000
Si      -0.03409497      -2.72306898      -2.75953589       0.00000000
