10
Lattice="16.28999089631971 0.0 0.0 0.0 16.28999089631971 0.0 0.0 0.0 34.51877397758722" Properties=species:S:1:pos:R:3:initial_magmoms:R:1 pbc="T T T"
Si      -1.35801585       1.35596331       1.35800385       0.00000000
Si       1.35640314      -1.35956340       1.35758962       0.00000000
Si      -1.34182359      -1.39002570      -1.34773105       0.00000000
Si       1.37446875       1.35270531      -1.36560834       0.00000000
Si      -2.60892495      -0.08114049      -2.78440668       0.00000000
Si       2.71536381       2.70809847      -0.00110460       0.00000000
Si      -2.71632492       2.71067229      -0.00424581       0.00000000
Si      -0.00030951       2.71231758       2.71507568       0.00000000
Si       2.71423980      -0.00156384       2.71497213       0.00000000
Si       2.71243161      -2.71772586      -0.00303765       0.00000000
