10
Lattice="16.28999089631971 0.0 0.0 0.0 16.28999089631971 0.0 0.0 0.0 34.51877397758722" Properties=species:S:1:pos:R:3:initial_magmoms:R:1 pbc="T T T"
Si      -1.25299422       1.37596743      -1.41921257       0.00000000
Si       1.34089506       1.35539316       1.36450373       0.00000000
Si      -1.37446875      -1.35270531       1.36560834       0.00000000
Si       1.38494322      -1.25340147      -1.56078105       0.00000000
Si      -2.22571899      -0.40580019      -2.56322406       0.00000000
Si      -0.43315110      -2.06320995      -2.94066087       0.00000000
Si       0.52430994       2.17653948      -2.89444021       0.00000000
Si       2.54171241       0.64993842      -2.76030018       0.00000000
Si       2.69214102      -2.70578529      -0.02614799       0.00000000
Si       2.69641870       0.00299736       2.72419900       0.00000000
