10
Lattice="16.28999089631971 0.0 0.0 0.0 16.28999089631971 0.0 0.0 0.0 34.51877397758722" Properties=species:S:1:pos:R:3:initial_magmoms:R:1 pbc="T T T"
Si      -2.10305529       1.22719086       0.22440668       0.00000000
Si      -0.82710846      -2.21443002       0.63452446       0.00000000
Si       1.85906597       0.03238452       1.59307683       0.00000000
Si       0.27139140      -2.18497770      -1.58796805       0.00000000
Si       1.20285166      -0.18725355      -2.77707144       0.00000000
Si       2.13368768       1.73372841      -1.49528509       0.00000000
Si      -2.96481258      -1.00963791       0.89545202       0.00000000
Si       1.07628030       1.99451502       2.55711769       0.00000000
Si       1.14660262      -1.89851805       2.77503483       0.00000000
Si       0.14600727       3.09765753      -1.77105573       0.00000000
