10
Lattice="16.28999089631971 0.0 0.0 0.0 16.28999089631971 0.0 0.0 0.0 34.51877397758722" Properties=species:S:1:pos:R:3:initial_magmoms:R:1 pbc="T T T"
Si      -1.16058105       1.50428376      -1.37408960       0.00000000
Si      -1.55360499      -1.02791529       1.47585101       0.00000000
Si       1.28933721       1.66622265       1.12600304       0.00000000
Si       1.56019104      -1.22891760      -1.36411367       0.00000000
Si      -2.51881846       0.13782969      -2.74852440       0.00000000
Si      -2.65592879      -2.63269206       0.06921018       0.00000000
Si      -3.35050181       0.90093474       1.39959899       0.00000000
Si       0.20373903      -2.58035229      -2.74286331       0.00000000
Si      -2.41904154       2.89865889       0.21049560       0.00000000
Si       1.56134763       1.07926137       3.37531664       0.00000000
