10
Lattice="16.28999089631971 0.0 0.0 0.0 16.28999089631971 0.0 0.0 0.0 34.51877397758722" Properties=species:S:1:pos:R:3:initial_magmoms:R:1 pbc="T T T"
Si       0.18766080       2.26647657      -0.76579943       0.00000000
Si      -0.53696727       0.02793735       2.36412311       0.00000000
Si      -1.59796755      -1.44298449      -1.14067352       0.00000000
Si       2.36490075      -0.94485258      -0.36482913       0.00000000
Si       1.45798758       1.12013298       2.79208711       0.00000000
Si      -0.07092666      -2.54699363      -2.60792935       0.00000000
Si      -0.72655029      -2.28209868       2.94006918       0.00000000
Si       1.74755862      -3.26309225      -1.12268923       0.00000000
Si       3.26524905      -0.19914525       2.08949159       0.00000000
Si      -1.75097952      -3.33719221       1.02065168       0.00000000
