10
Lattice="16.28999089631971 0.0 0.0 0.0 16.28999089631971 0.0 0.0 0.0 34.51877397758722" Properties=species:S:1:pos:R:3:initial_magmoms:R:1 pbc="T T T"
Si      -1.34089506      -1.35539316      -1.36450373       0.00000000
Si       1.35552364      -1.35239580       1.35969527       0.00000000
Si      -1.35847197       1.36233270       1.35845259       0.00000000
Si       1.35925450       1.37942091      -1.37437956       0.00000000
Si      -2.59388928       0.02057427      -2.78371630       0.00000000
Si       2.71172855      -2.70637173      -0.00210565       0.00000000
Si      -2.71536381      -2.70809847       0.00110460       0.00000000
Si      -0.00112401      -2.70966231       2.71607673       0.00000000
Si       2.71385928       0.00474039       2.71607673       0.00000000
Si       2.71307736       2.71857294       0.00027615       0.00000000
