10
Lattice="16.28999089631971 0.0 0.0 0.0 16.28999089631971 0.0 0.0 0.0 34.51877397758722" Properties=species:S:1:pos:R:3:initial_magmoms:R:1 pbc="T T T"
Si      -1.35749457      -1.35122292      -1.39542222       0.00000000
Si       1.35909099       1.36235043      -1.39193582       0.00000000
Si      -1.45893240       1.36430379       1.40781446       0.00000000
Si       1.29981168      -1.57464027       1.44806338       0.00000000
Si      -2.72663649      -2.68754049      -0.02885771       0.00000000
Si       2.70167599       2.71407757      -0.00859518       0.00000000
Si      -2.73331539       2.71711240      -0.03158470       0.00000000
Si       2.73604138      -2.71669959      -0.02167780       0.00000000
Si      -0.00167787      -2.70844056      -2.75363318       0.00000000
Si       2.71436590       0.00667890      -2.75484133       0.00000000
