10
Lattice="16.28999089631971 0.0 0.0 0.0 16.28999089631971 0.0 0.0 0.0 34.51877397758722" Properties=species:S:1:pos:R:3:initial_magmoms:R:1 pbc="T T T"
Si       0.78874551      -1.86088815       1.12358672       0.00000000
Si      -1.85588712       0.95648364       1.06186712       0.00000000
Si       1.89949449       1.46735433       0.11839946       0.00000000
Si      -1.04192469      -0.33619302      -2.17264737       0.00000000
Si       1.50986213       2.35418193      -2.03063705       0.00000000
Si      -2.06490411       2.90241441      -0.46048070       0.00000000
Si       1.66475070      -1.04332563       3.14562859       0.00000000
Si      -3.63472254      -0.57216996       0.79552011       0.00000000
Si       2.45247646      -2.90954061      -0.21180732       0.00000000
Si      -2.91141396       1.19075013      -2.18193292       0.00000000
