10
Lattice="16.28999089631971 0.0 0.0 0.0 16.28999089631971 0.0 0.0 0.0 34.51877397758722" Properties=species:S:1:pos:R:3:initial_magmoms:R:1 pbc="T T T"
Si       1.07663868      -1.45202544      -1.59031532       0.00000000
Si       1.61722233       1.62067811       0.78602744       0.00000000
Si      -2.02026951       1.09429704      -0.76738729       0.00000000
Si      -0.35587134      -1.66319271       2.07026463       0.00000000
Si       2.76359103       0.29815587       2.38504150       0.00000000
Si      -2.67877647      -1.52143713       2.15600931       0.00000000
Si      -3.21760080      -1.95046686      -0.18277701       0.00000000
Si       0.44201286      -3.66256215      -0.93994674       0.00000000
Si       3.32567422      -1.69815105      -0.98302619       0.00000000
Si      -1.51772301       3.42403487      -1.08603027       0.00000000
