10
Lattice="16.28999089631971 0.0 0.0 0.0 16.28999089631971 0.0 0.0 0.0 34.51877397758722" Properties=species:S:1:pos:R:3:initial_magmoms:R:1 pbc="T T T"
Si      -0.65572137       2.01368835       0.97222181       0.00000000
Si       1.84541265      -1.25742510       0.74788417       0.00000000
Si      -1.37940462      -1.61658702      -1.02717573       0.00000000
Si       1.00489752       1.30952052      -1.68814158       0.00000000
Si       2.26015605      -2.06501814      -1.40080715       0.00000000
Si       1.52187696       2.91380859       1.47094934       0.00000000
Si       0.26520120      -3.15721377      -1.82877115       0.00000000
Si       2.78658369       0.04166982      -2.40796198       0.00000000
Si      -1.42806285       1.51710399       3.07469247       0.00000000
Si       1.66013019       3.43031562      -0.81298662       0.00000000
