10
Lattice="16.28999089631971 0.0 0.0 0.0 16.28999089631971 0.0 0.0 0.0 34.51877397758722" Properties=species:S:1:pos:R:3:initial_magmoms:R:1 pbc="T T T"
Si       1.15836398       1.40949225      -1.48285832       0.00000000
Si      -0.36884958       0.67683321       2.24738055       0.00000000
Si      -2.15815689       0.24063588      -0.97953980       0.00000000
Si       1.20511628      -2.07407538       0.20493808       0.00000000
Si      -3.30648786      -0.68356098       0.80601382       0.00000000
Si       2.80296980      -0.13113450      -2.28445374       0.00000000
Si       2.60382455      -1.58633649       2.06546651       0.00000000
Si      -0.50904035       2.21553774      -3.02709106       0.00000000
Si       1.03973206      -0.66152061       3.58639906       0.00000000
Si      -0.43994028      -3.70315031       0.74619275       0.00000000
