10
Lattice="16.28999089631971 0.0 0.0 0.0 16.28999089631971 0.0 0.0 0.0 34.51877397758722" Properties=species:S:1:pos:R:3:initial_magmoms:R:1 pbc="T T T"
Si      -1.15404061      -0.92173707      -1.86063199       0.00000000
Si       2.30698980      -0.56237967      -0.16879690       0.00000000
Si      -0.74859066      -1.36726857       1.80598875       0.00000000
Si      -0.22859757       2.38280346       0.38768057       0.00000000
Si       2.86730064      -0.35033274       2.09491104       0.00000000
Si       1.29411018      -1.99402632       2.79201807       0.00000000
Si      -2.02023530      -0.03574026       3.22654064       0.00000000
Si       0.73744830       2.81375541       2.47910521       0.00000000
Si       3.27596787       0.62416764      -1.90205455       0.00000000
Si       0.41005188      -1.84655295      -3.38156454       0.00000000
