10
Lattice="16.28999089631971 0.0 0.0 0.0 16.28999089631971 0.0 0.0 0.0 34.51877397758722" Properties=species:S:1:pos:R:3:initial_magmoms:R:1 pbc="T T T"
Si      -1.29712383       1.26557010       1.47516408       0.00000000
Si      -1.20674691      -1.68148638      -1.28988933       0.00000000
Si       1.44112743      -1.46249991       1.44878137       0.00000000
Si       0.86380983       1.90417068      -1.48623223       0.00000000
Si      -2.47141943       2.84490189       0.02491221       0.00000000
Si       0.08078211       2.60367957       2.84209449       0.00000000
Si      -2.63597612      -0.10705788       2.84399302       0.00000000
Si       2.83522563       2.68594407      -0.14658060       0.00000000
Si      -2.69538575      -2.88235260       0.04956208       0.00000000
Si       0.46165860      -2.74383873      -2.83253420       0.00000000
