10
Lattice="16.28999089631971 0.0 0.0 0.0 16.28999089631971 0.0 0.0 0.0 34.51877397758722" Properties=species:S:1:pos:R:3:initial_magmoms:R:1 pbc="T T T"
Si       1.25846049      -1.39437513      -1.58458520       0.00000000
Si       0.93083601       1.92098196       1.28178635       0.00000000
Si      -1.46104816       1.29187845      -1.56525468       0.00000000
Si      -0.93146026      -1.99772415       1.18910339       0.00000000
Si      -1.20285166       0.18725355       2.77707144       0.00000000
Si      -1.05684439       3.28491108       1.00601571       0.00000000
Si       2.41904154      -2.89865889      -0.21049560       0.00000000
Si       2.73669654       2.75962374      -0.08750514       0.00000000
Si      -2.77568374      -2.75335209      -0.19720587       0.00000000
Si       2.61704649      -0.05017320      -2.95370410       0.00000000
