10
Lattice="16.28999089631971 0.0 0.0 0.0 16.28999089631971 0.0 0.0 0.0 34.51877397758722" Properties=species:S:1:pos:R:3:initial_magmoms:R:1 pbc="T T T"
Si      -2.34993513       0.13905144       0.15219336       0.00000000
Si       0.97423974      -1.89998415      -1.05313386       0.00000000
Si       0.98930799       0.32821092       2.21741824       0.00000000
Si       1.35557235       1.35365013      -1.60805798       0.00000000
Si       2.84646573      -0.34011891      -0.71333086       0.00000000
Si       2.77099416      -0.93963978       1.49759785       0.00000000
Si       0.70222932      -1.31302287      -3.30244747       0.00000000
Si      -3.06239848      -1.79185113       1.33415136       0.00000000
Si      -1.90701817       3.30978591      -0.71132877       0.00000000
Si      -3.13272080       2.10118194       1.11623422       0.00000000
