10
Lattice="16.28999089631971 0.0 0.0 0.0 16.28999089631971 0.0 0.0 0.0 34.51877397758722" Properties=species:S:1:pos:R:3:initial_magmoms:R:1 pbc="T T T"
Si       0.77234148       0.49658436      -2.10247066       0.00000000
Si      -1.75201298      -1.51659900      -0.27646102       0.00000000
Si      -1.05157651       1.87062957       0.99956070       0.00000000
Si       1.80273285      -0.49954914       1.50581332       0.00000000
Si      -2.79892241      -1.20182733       1.82638935       0.00000000
Si       2.32687989       1.78417854       2.08179390       0.00000000
Si       2.94993981       1.39670460      -1.60374314       0.00000000
Si       1.42806285      -1.51710399      -3.07469247       0.00000000
Si       0.20220777       2.39803461       2.91728678       0.00000000
Si      -3.10339880       1.11767319       1.85158807       0.00000000
