10
Lattice="16.28999089631971 0.0 0.0 0.0 16.28999089631971 0.0 0.0 0.0 34.51877397758722" Properties=species:S:1:pos:R:3:initial_magmoms:R:1 pbc="T T T"
Si      -1.35639748      -1.35777253      -1.35714088       0.00000000
Si       1.35805169       1.35749946      -1.35720991       0.00000000
Si      -1.35777222       1.35792300       1.35776221       0.00000000
Si       1.35826346      -1.35833447       1.35758962       0.00000000
Si      -2.71456953       2.71463565       0.00020711       0.00000000
Si       2.71554626      -0.00129180       2.71393656       0.00000000
Si       0.00299410       2.71326729      -2.71624932       0.00000000
Si       0.00026879      -2.71538240       2.71414368       0.00000000
Si       2.71482950       2.71501032      -0.00017259       0.00000000
Si      -2.71447179      -2.71539869      -0.00013808       0.00000000
