10
Lattice="16.28999089631971 0.0 0.0 0.0 16.28999089631971 0.0 0.0 0.0 34.51877397758722" Properties=species:S:1:pos:R:3:initial_magmoms:R:1 pbc="T T T"
Si      -1.25378428      -0.52740504      -1.91772608       0.00000000
Si       2.12467212      -0.61385607      -0.83549287       0.00000000
Si      -1.26582422      -1.47181779       1.39421406       0.00000000
Si      -0.59398390       2.18890359       0.75692810       0.00000000
Si      -3.47764526       0.22449249       0.80000755       0.00000000
Si       1.60052508      -2.89758375      -1.41147346       0.00000000
Si      -3.30560657      -1.28036142      -1.06569870       0.00000000
Si      -2.84301944       2.43502920       0.14963897       0.00000000
Si      -0.29986958       2.17078911       3.06444039       0.00000000
Si      -0.20220777      -2.39803461      -2.91728678       0.00000000
