10
Lattice="16.28999089631971 0.0 0.0 0.0 16.28999089631971 0.0 0.0 0.0 34.51877397758722" Properties=species:S:1:pos:R:3:initial_magmoms:R:1 pbc="T T T"
Si       1.35736869       1.35770634       1.35641598       0.00000000
Si       1.35718787      -1.35746199      -1.35769318       0.00000000
Si      -1.35737188       1.35769005      -1.35786577       0.00000000
Si      -1.35867508      -1.35741312       1.35762414       0.00000000
Si       2.71024830       0.00192222       2.71576606       0.00000000
Si      -0.00114778      -2.71459818      -2.71407464       0.00000000
Si       2.71440225      -2.71445157       0.00065586       0.00000000
Si       2.71433709       0.00133578      -2.71504117       0.00000000
Si      -2.71506193      -2.71485882      -0.00020711       0.00000000
Si       2.71536336       2.71475427      -0.00013808       0.00000000
