10
Lattice="10.86 0.0 0.0 0.0 10.86 0.0 0.0 0.0 10.86" Properties=species:S:1:pos:R:3:initial_magmoms:R:1 pbc="T T T"
Si       1.19114652       1.50656436       1.14448110       0.00000000
Si      -1.52385348      -1.20843564       1.14448110       0.00000000
Si       1.19114652      -1.20843564      -1.57051890       0.00000000
Si      -1.75937430       0.82597902      -1.41502542       0.00000000
Si      -0.00913326       0.50475108      -3.02688834       0.00000000
Si       2.54864652       0.14906436       2.50198110       0.00000000
Si      -0.16635348      -2.56593564       2.50198110       0.00000000
Si       2.54864652      -2.56593564      -0.21301890       0.00000000
Si      -0.16635348       2.86406436       2.50198110       0.00000000
Si      -2.88135348       0.14906436       2.50198110       0.00000000
