10
Lattice="10.86 0.0 0.0 0.0 10.86 0.0 0.0 0.0 10.86" Properties=species:S:1:pos:R:3:initial_magmoms:R:1 pbc="T T T"
Si      -1.26166050       1.25523138      -1.42826376       0.00000000
Si       1.45333950       1.25523138       1.28673624       0.00000000
Si      -1.26166050      -1.45976862       1.28673624       0.00000000
Si      -2.36693700      -0.34715076      -2.72494776       0.00000000
Si      -2.61916050       2.61273138      -0.07076376       0.00000000
Si       0.09583950       2.61273138       2.64423624       0.00000000
Si      -2.61916050      -0.10226862       2.64423624       0.00000000
Si       0.09583950       2.61273138      -2.78576376       0.00000000
Si       2.57203896      -0.21283428      -2.82012480       0.00000000
Si       2.81083950       2.61273138      -0.07076376       0.00000000
