10
Lattice="10.86 0.0 0.0 0.0 10.86 0.0 0.0 0.0 10.86" Properties=species:S:1:pos:R:3:initial_magmoms:R:1 pbc="T T T"
Si      -1.11869946       1.46806566      -1.32313896       0.00000000
Si       1.59630054      -1.24693434      -1.32313896       0.00000000
Si       1.59630054       1.46806566       1.39186104       0.00000000
Si      -2.36491704       0.21983898      -2.69600586       0.00000000
Si      -2.47619946       2.82556566       0.03436104       0.00000000
Si      -2.57203896       0.21283428       2.82012480       0.00000000
Si       0.79825344      -1.99068144      -3.24022218       0.00000000
Si       0.23880054       2.82556566      -2.68063896       0.00000000
Si       2.95380054      -2.60443434       0.03436104       0.00000000
Si       0.23880054       2.82556566       2.74936104       0.00000000
