10
Lattice="10.86 0.0 0.0 0.0 10.86 0.0 0.0 0.0 10.86" Properties=species:S:1:pos:R:3:initial_magmoms:R:1 pbc="T T T"
Si       1.27570248       1.09793514       1.51139706       0.00000000
Si       1.27570248      -1.61706486      -1.20360294       0.00000000
Si      -1.30264614       1.55151390      -1.34751966       0.00000000
Si      -1.43929752      -1.61706486       1.51139706       0.00000000
Si       2.62333074       2.53107504       0.05902410       0.00000000
Si      -2.87036316       2.33586654       0.09663228       0.00000000
Si      -2.75632230       0.02834460      -2.51241756       0.00000000
Si      -0.08179752       2.45543514       2.86889706       0.00000000
Si       2.91934176      -0.58283448      -2.50463094       0.00000000
Si       2.63320248      -0.25956486       2.86889706       0.00000000
