10
Lattice="10.86 0.0 0.0 0.0 10.86 0.0 0.0 0.0 10.86" Properties=species:S:1:pos:R:3:initial_magmoms:R:1 pbc="T T T"
Si      -0.07571592      -1.55660724       1.75428096       0.00000000
Si      -1.53200934       1.91246772       0.47673228       0.00000000
Si      -1.42930632      -0.61269948      -1.97363124       0.00000000
Si       1.06871088       2.20789230      -2.38926516       0.00000000
Si      -1.52939208      -3.07977654       0.58938306       0.00000000
Si      -2.92736730       0.70481400       1.89819768       0.00000000
Si      -2.92736730      -2.01018600      -0.81680232       0.00000000
Si      -1.64343294      -0.77225460       3.19843290       0.00000000
Si      -0.21236730       3.41981400       1.89819768       0.00000000
Si       1.31674242       2.13333840       3.11597292       0.00000000
