10
Lattice="10.86 0.0 0.0 0.0 10.86 0.0 0.0 0.0 10.86" Properties=species:S:1:pos:R:3:initial_magmoms:R:1 pbc="T T T"
Si      -1.35750000       1.35750000      -1.35750000       0.00000000
Si       1.35750000       1.35750000       1.35750000       0.00000000
Si      -1.35750000      -1.35750000       1.35750000       0.00000000
Si       1.35750000      -1.35750000      -1.35750000       0.00000000
Si       2.75547522      -2.42709054       0.04868538       0.00000000
Si       2.64143436      -0.11956860       2.65773522       0.00000000
Si      -2.65832166       0.00217200      -2.66212266       0.00000000
Si       2.75285796       2.56515372      -0.06396540       0.00000000
Si      -2.72487174       0.07563990       2.62012704       0.00000000
Si       2.85556098       0.03998652      -2.51432892       0.00000000
