10
Lattice="10.86 0.0 0.0 0.0 10.86 0.0 0.0 0.0 10.86" Properties=species:S:1:pos:R:3:initial_magmoms:R:1 pbc="T T T"
Si       1.25802240      -1.18797540      -1.29658626       0.00000000
Si      -1.45697760      -1.18797540       1.41841374       0.00000000
Si      -1.45697760       1.52702460      -1.29658626       0.00000000
Si       2.61552240      -2.54547540       0.06091374       0.00000000
Si      -0.09947760      -2.54547540      -2.65408626       0.00000000
Si       2.61552240       0.16952460      -2.65408626       0.00000000
Si      -0.09947760      -2.54547540       2.77591374       0.00000000
Si      -2.81447760      -2.54547540       0.06091374       0.00000000
Si      -2.81447760       0.16952460      -2.65408626       0.00000000
Si      -0.09947760       2.88452460      -2.65408626       0.00000000
