10
Lattice="16.290000149 0.0 0.0 0.0 16.290000149 0.0 0.0 0.0 29.1751946751" Properties=species:S:1:pos:R:3:initial_magmoms:R:1 pbc="T T T"
Si      -0.91478125      -1.83484046       1.16464460       0.00000000
Si       1.15395103       0.12981501      -2.05244577       0.00000000
Si       1.56151054       0.77788009       1.59232377       0.00000000
Si      -1.93518686       1.48748878      -0.32089797       0.00000000
Si      -1.94934287      -0.35134272       2.63726255       0.00000000
H       -2.83273329       0.49904415       1.74788591       0.00000000
H        1.85715776      -2.83977057      -0.13117168       0.00000000
Si      -0.05238864       0.95045635       3.26992664       0.00000000
Si       2.39461373       2.70743223       0.57235897       0.00000000
Si       2.67309128       1.97433173      -1.63465698       0.00000000
