10
Lattice="16.290000149 0.0 0.0 0.0 16.290000149 0.0 0.0 0.0 29.1751946751" Properties=species:S:1:pos:R:3:initial_magmoms:R:1 pbc="T T T"
Si       1.34848784      -1.33540534       1.37511445       0.00000000
Si      -1.26975762       1.36244674       1.42307847       0.00000000
Si       1.34048945       1.36806679      -1.36499066       0.00000000
Si      -1.37945187      -1.36093177      -1.33418165       0.00000000
Si       2.66072880       0.13300785       2.65365901       0.00000000
Si      -2.65904768       2.71723718       0.07004964       0.00000000
Si       0.01736840      -2.69782113      -2.68236740       0.00000000
Si      -2.68186997       0.01871721      -2.71136754       0.00000000
Si      -0.06122434      -2.63096697       2.76219073       0.00000000
Si      -2.55961351      -0.00190593       2.86894277       0.00000000
