10
Lattice="16.290000149 0.0 0.0 0.0 16.290000149 0.0 0.0 0.0 29.1751946751" Properties=species:S:1:pos:R:3:initial_magmoms:R:1 pbc="T T T"
Si       1.35575155       1.34009686      -1.31575168       0.00000000
Si       1.43325937      -1.31975065       1.28286249       0.00000000
Si      -1.33608952       1.44133921       1.28919350       0.00000000
Si      -1.30447063      -1.29512017      -1.47590016       0.00000000
Si      -0.05067819       2.70360245      -2.57027630       0.00000000
Si       0.05326830      -2.63754650       2.64639438       0.00000000
Si      -2.67162518      -2.64530054      -0.12533664       0.00000000
Si      -2.69987204       0.07983729       2.61891135       0.00000000
Si       2.77953015      -2.59900436      -0.17779364       0.00000000
Si       2.76858327       0.08456139       2.62130372       0.00000000
