10
Lattice="16.290000149 0.0 0.0 0.0 16.290000149 0.0 0.0 0.0 29.1751946751" Properties=species:S:1:pos:R:3:initial_magmoms:R:1 pbc="T T T"
Si      -0.93175054       0.81511414       1.99441631       0.00000000
Si       1.36109956       1.38443336      -1.33424000       0.00000000
Si      -1.86824636      -0.89826645      -1.12023995       0.00000000
Si       1.84077490      -1.17529582       0.93135974       0.00000000
H        2.64206372       1.42243793      -0.51371683       0.00000000
H       -2.91478113       0.21504266      -1.10086762       0.00000000
Si       0.52487847      -2.60187629       2.27820343       0.00000000
Si       1.96281959      -0.13357149      -3.09195796       0.00000000
Si       0.40229459       2.79324144       2.47965815       0.00000000
Si      -0.64658953      -1.01051758       3.56456693       0.00000000
