10
Lattice="16.290000149 0.0 0.0 0.0 16.290000149 0.0 0.0 0.0 29.1751946751" Properties=species:S:1:pos:R:3:initial_magmoms:R:1 pbc="T T T"
Si      -1.43325937       1.31975065      -1.28286249       0.00000000
Si      -1.37999107      -1.31779585       1.36353190       0.00000000
Si       1.33532389       1.40431204       1.33844123       0.00000000
Si       1.34627077      -1.27925371      -1.46065612       0.00000000
Si      -0.07750782       2.65984751      -2.59861417       0.00000000
Si       2.68583006      -2.61565274      -0.03871548       0.00000000
Si      -0.02419065      -2.68798034       2.70270251       0.00000000
Si      -2.75340099      -2.64438830      -0.00017505       0.00000000
Si       2.69808014       0.06502968       2.70290674       0.00000000
Si      -2.74919817       0.06134814       2.68586842       0.00000000
