10
Lattice="16.290000149 0.0 0.0 0.0 16.290000149 0.0 0.0 0.0 29.1751946751" Properties=species:S:1:pos:R:3:initial_magmoms:R:1 pbc="T T T"
Si      -1.39787749       1.27723375      -1.36370695       0.00000000
Si       1.43386210      -1.37342620      -1.23720331       0.00000000
Si      -1.38422647      -1.32103756       1.34836080       0.00000000
Si       0.88055596       1.88141357       1.09045208       0.00000000
Si      -2.45790038       0.13098789       2.82981883       0.00000000
Si       0.05150898      -2.72464913      -2.57818278       0.00000000
Si      -2.57841380       2.73108368       0.04726382       0.00000000
Si      -0.01345554       2.61202007      -2.70398622       0.00000000
Si       2.77333995      -0.04823469      -2.61975743       0.00000000
Si       2.72297126       2.69695613      -0.08872177       0.00000000
