10
Lattice="16.290000149 0.0 0.0 0.0 16.290000149 0.0 0.0 0.0 29.1751946751" Properties=species:S:1:pos:R:3:initial_magmoms:R:1 pbc="T T T"
Si      -1.30303711      -1.35392707       1.43425549       0.00000000
Si       1.36067276      -1.45823194      -1.28689741       0.00000000
Si       1.39065776       1.28691001       1.43480982       0.00000000
Si      -1.30088683       1.52998939      -1.31819073       0.00000000
Si       2.70615998       0.00333945      -2.52117795       0.00000000
Si      -2.53255745       2.73099409       0.27800460       0.00000000
Si      -2.64984545      -2.68682375       0.04520113       0.00000000
Si       2.80264566       2.67737555       0.17817583       0.00000000
Si      -2.64673406      -0.05072706       2.85823839       0.00000000
Si       0.10920702       2.63208935       2.89117718       0.00000000
