10
Lattice="16.290000149 0.0 0.0 0.0 16.290000149 0.0 0.0 0.0 29.1751946751" Properties=species:S:1:pos:R:3:initial_magmoms:R:1 pbc="T T T"
Si       1.54103401      -1.27019647      -1.19530773       0.00000000
Si       1.39572721       1.32107014       1.36585716       0.00000000
Si      -1.21601593      -1.43467660       1.44353612       0.00000000
Si      -1.47269746       1.20847366      -1.45616314       0.00000000
H        0.36017190      -1.81012853      -2.24850308       0.00000000
Si      -2.67038714       2.68148063      -0.02567417       0.00000000
Si       2.85628879       2.49994487      -0.04980206       0.00000000
Si      -2.64774404      -0.06286311       2.72789529       0.00000000
Si      -0.13949127       2.54435141      -2.84808250       0.00000000
Si       0.06566499       2.76149712       2.68021427       0.00000000
