10
Lattice="16.290000149 0.0 0.0 0.0 16.290000149 0.0 0.0 0.0 29.1751946751" Properties=species:S:1:pos:R:3:initial_magmoms:R:1 pbc="T T T"
Si       1.24971994      -1.37037997       1.41305096       0.00000000
Si      -1.28710549       1.44925615       1.32787106       0.00000000
Si       1.90746128       0.79042339      -1.12172205       0.00000000
Si      -1.83865232      -0.88125643      -1.18681483       0.00000000
H        0.69532237      -1.82757512      -1.92221937       0.00000000
Si       1.25384131       1.21471273      -3.25290000       0.00000000
Si       2.66942603       0.05903496       2.64854168       0.00000000
Si      -2.71432127       0.05851368       2.60921352       0.00000000
Si       2.74765062      -2.60598626       0.13289885       0.00000000
Si      -3.47162709       0.85428019      -1.27090941       0.00000000
