10
Lattice="16.290000149 0.0 0.0 0.0 16.290000149 0.0 0.0 0.0 29.1751946751" Properties=species:S:1:pos:R:3:initial_magmoms:R:1 pbc="T T T"
Si      -1.39010716      -1.34488612      -1.27565038       0.00000000
Si       1.32990454      -1.40893840       1.31101655       0.00000000
Si      -1.42521211       1.36028017       1.27020045       0.00000000
Si       1.29515275       1.31432608      -1.46967417       0.00000000
Si       2.62629826       2.67460625      -0.09099743       0.00000000
Si       2.66493325      -0.03205872       2.65608055       0.00000000
Si      -0.06897186       2.71002071       2.62486309       0.00000000
Si      -0.13225851      -2.74585872      -2.64051558       0.00000000
Si      -2.74993122      -0.02661786       2.65330890       0.00000000
Si       2.68030775      -2.73544940      -0.09572381       0.00000000
