10
Lattice="16.290000149 0.0 0.0 0.0 16.290000149 0.0 0.0 0.0 29.1751946751" Properties=species:S:1:pos:R:3:initial_magmoms:R:1 pbc="T T T"
Si       1.42521211      -1.36028017      -1.27020045       0.00000000
Si       1.35624025       1.34974054       1.35466264       0.00000000
Si      -1.32471910      -1.38689803       1.38310845       0.00000000
Si      -1.33955929       1.33639903      -1.42194064       0.00000000
Si       0.03510495      -2.70516629      -2.54585083       0.00000000
Si      -2.68583006       2.61565274       0.03871548       0.00000000
Si       2.69710274       2.70283682      -0.03083818       0.00000000
Si       2.70190829      -0.03119535       2.70874177       0.00000000
Si       0.01225008       2.68068242       2.74162222       0.00000000
Si      -2.71153568      -0.06975378      -2.73437218       0.00000000
