10
Lattice="16.290000149 0.0 0.0 0.0 16.290000149 0.0 0.0 0.0 29.1751946751" Properties=species:S:1:pos:R:3:initial_magmoms:R:1 pbc="T T T"
Si       1.45668439      -1.21044475      -1.27618137       0.00000000
Si       1.45896499       1.03790107       1.47110084       0.00000000
Si      -1.19713582       1.55898559      -1.23046384       0.00000000
Si      -1.10209996      -1.42974073       1.57015063       0.00000000
H        2.10157292      -2.05890941      -0.20381791       0.00000000
Si      -1.98052193       0.35111466       2.85362579       0.00000000
Si       2.47867013      -0.80697403       2.37077632       0.00000000
Si      -0.12429270       1.81905545       3.03337417       0.00000000
Si       0.01938510      -2.53899200      -2.48762297       0.00000000
Si      -2.58261662       0.20623140      -2.52461712       0.00000000
