10
Lattice="16.290000149 0.0 0.0 0.0 16.290000149 0.0 0.0 0.0 29.1751946751" Properties=species:S:1:pos:R:3:initial_magmoms:R:1 pbc="T T T"
H       -0.64606141      -0.84488086       1.04954845       0.00000000
Si      -1.57791457       1.08735751      -1.31615138       0.00000000
Si       1.23733954      -1.36334269      -1.42004425       0.00000000
Si       1.27509976       1.46577421       1.29829616       0.00000000
H       -2.02114919      -1.74723284       0.48427906       0.00000000
H       -1.11394279      -2.10178469       2.25807254       0.00000000
Si      -3.17707131       1.00005940       0.48384143       0.00000000
Si       2.52086123      -0.01594791       2.65704333       0.00000000
Si      -0.28191474       2.67437819      -2.59589212       0.00000000
Si       2.55591731      -2.74201428      -0.08781734       0.00000000
