10
Lattice="16.290000149 0.0 0.0 0.0 16.290000149 0.0 0.0 0.0 29.1751946751" Properties=species:S:1:pos:R:3:initial_magmoms:R:1 pbc="T T T"
Si      -1.32732550       1.35866746       1.36650777       0.00000000
Si       1.37730322      -1.33990138       1.35886387       0.00000000
Si       1.41115384       1.40439349      -1.25767846       0.00000000
Si      -1.41970609      -1.42941493      -1.23549072       0.00000000
Si       0.07822458      -2.66502122      -2.51564283       0.00000000
Si       2.66900249       0.00342090      -2.62254366       0.00000000
Si      -2.66942603      -0.05903496      -2.64854168       0.00000000
Si       0.05132979       2.72266175       2.67128082       0.00000000
Si      -2.64424169       2.75019186       0.02459469       0.00000000
Si       0.09624132       2.66799251      -2.73055898       0.00000000
