10
Lattice="16.290000149 0.0 0.0 0.0 16.290000149 0.0 0.0 0.0 29.1751946751" Properties=species:S:1:pos:R:3:initial_magmoms:R:1 pbc="T T T"
Si      -1.36041538      -1.34990344       1.35314553       0.00000000
Si      -1.38931710       1.34899120      -1.32998042       0.00000000
Si       1.31872438      -1.36301689      -1.39028555       0.00000000
Si       1.36972837       1.36135531       1.35250367       0.00000000
Si      -0.01353699       2.69693984      -2.68076276       0.00000000
Si       0.01159848      -2.69208542       2.70871260       0.00000000
Si       2.68679117      -2.72000648      -0.06260997       0.00000000
Si       2.68680746      -0.01928736      -2.73356987       0.00000000
Si      -2.69834232       0.01444923       2.72493401       0.00000000
Si      -2.70337140      -0.01718595      -2.72475896       0.00000000
