10
Lattice="16.290000149 0.0 0.0 0.0 16.290000149 0.0 0.0 0.0 29.1751946751" Properties=species:S:1:pos:R:3:initial_magmoms:R:1 pbc="T T T"
Si       1.21523401      -1.66887794       1.14445536       0.00000000
Si       1.26961003       1.29314908      -1.52090290       0.00000000
Si      -1.03324213       1.75376513       1.25537945       0.00000000
Si      -1.29725416      -1.62010567      -1.20473131       0.00000000
H        0.14867883      -2.76087810       1.32671280       0.00000000
H       -2.36519399      -0.79268770      -1.91987369       0.00000000
H       -0.33003540      -1.21582045       3.17665355       0.00000000
H       -3.20015424      -1.10592811       0.48337463       0.00000000
H       -1.89731261       0.46421613      -3.12839777       0.00000000
Si      -2.56315007       2.72764650      -0.26091377       0.00000000
