10
Lattice="16.290000149 0.0 0.0 0.0 16.290000149 0.0 0.0 0.0 29.1751946751" Properties=species:S:1:pos:R:3:initial_magmoms:R:1 pbc="T T T"
Si       1.32012532       1.34100910       1.39439634       0.00000000
Si      -1.35839868       1.33964074      -1.38108953       0.00000000
Si       1.41910336      -1.38196216      -1.28407034       0.00000000
Si      -1.37433844      -1.36091548       1.36177847       0.00000000
Si       0.03126051      -2.65649177      -2.66183915       0.00000000
Si       2.67581171       2.65544921      -0.00522236       0.00000000
Si       0.12903309       2.53969247      -2.81698466       0.00000000
Si       2.62194068      -2.77922064       0.15738559       0.00000000
Si      -2.86479201      -0.04564458      -2.54792664       0.00000000
Si       2.67245597      -0.02642238       2.75078031       0.00000000
