10
Lattice="16.290000149 0.0 0.0 0.0 16.290000149 0.0 0.0 0.0 29.1751946751" Properties=species:S:1:pos:R:3:initial_magmoms:R:1 pbc="T T T"
Si       1.35839868      -1.33964074       1.38108953       0.00000000
Si      -1.50639333      -1.38528532      -1.16683711       0.00000000
Si      -1.40109477       1.34921926       1.36891764       0.00000000
Si       1.48743177       1.20005173      -1.43589513       0.00000000
Si      -2.64421726       0.11808621      -2.54878293       0.00000000
Si      -0.24363324      -2.81219160      -2.49442955       0.00000000
Si       2.66067016       2.66742236       0.01457301       0.00000000
Si       0.13159062       2.60872949      -2.74939157       0.00000000
Si      -0.01593977      -2.70055622       2.74286800       0.00000000
Si       2.67852400       0.00136836       2.77548587       0.00000000
