10
Lattice="16.290000149 0.0 0.0 0.0 16.290000149 0.0 0.0 0.0 29.1751946751" Properties=species:S:1:pos:R:3:initial_magmoms:R:1 pbc="T T T"
Si      -1.18938178      -1.15176312      -1.69160696       0.00000000
Si       0.57800179      -1.73688217       1.51848136       0.00000000
Si      -1.99883189       0.88170277       0.97357625       0.00000000
Si       1.44493572       1.41397853      -1.34821492       0.00000000
H        0.46662705       2.28067170       2.00984999       0.00000000
Si      -2.73970110       2.20788798      -0.81051608       0.00000000
Si      -2.47104641      -2.60751752      -0.41560065       0.00000000
Si      -2.62356968       0.47697772      -2.62031176       0.00000000
Si      -3.50583609      -0.97609192       0.89739981       0.00000000
H       -0.74701054       0.10952745       3.74486964       0.00000000
