10
Lattice="16.290000149 0.0 0.0 0.0 16.290000149 0.0 0.0 0.0 29.1751946751" Properties=species:S:1:pos:R:3:initial_magmoms:R:1 pbc="T T T"
Si      -2.19677657      -0.18446796      -0.65752136       0.00000000
Si       1.31186141      -0.26860581      -1.91237566       0.00000000
Si       0.51814744       0.91136035       2.09168641       0.00000000
Si       0.79506115      -2.26181765      -0.21586727       0.00000000
Si       0.76955101       2.11452347      -1.17850281       0.00000000
H        2.07602531      -2.22381308       0.60465591       0.00000000
H       -2.26718195      -1.26006409      -1.71751454       0.00000000
H        1.96751762       2.48091815      -0.29032236       0.00000000
H        3.36977712       0.44841483       0.17324231       0.00000000
Si      -2.64235694       1.94919626      -1.55425015       0.00000000
