10
Lattice="16.290000149 0.0 0.0 0.0 16.290000149 0.0 0.0 0.0 29.1751946751" Properties=species:S:1:pos:R:3:initial_magmoms:R:1 pbc="T T T"
Si      -1.34819299      -1.28725210       1.37161343       0.00000000
Si       1.25346664       1.31685918       1.47159682       0.00000000
Si       1.36673101      -1.37021707      -1.34232153       0.00000000
Si      -1.42627096       1.36641499      -1.29429916       0.00000000
Si       2.41259789       2.75470419      -0.03652734       0.00000000
Si       2.70697448       0.00935046      -2.65739343       0.00000000
Si      -0.04440654      -2.69304653      -2.69890973       0.00000000
Si      -0.11929167       2.71373483      -2.71772773       0.00000000
Si      -2.75926539      -2.68273496       0.07182933       0.00000000
Si      -2.77017969       0.02088378      -2.68312595       0.00000000
