10
Lattice="16.290000149 0.0 0.0 0.0 16.290000149 0.0 0.0 0.0 29.1751946751" Properties=species:S:1:pos:R:3:initial_magmoms:R:1 pbc="T T T"
Si       1.83226664       1.02276766      -0.94172277       0.00000000
Si       1.40642974      -1.36350559       1.25452462       0.00000000
Si      -1.32015790       1.48916129       1.20886836       0.00000000
Si      -1.30388419      -1.18452736      -1.55373812       0.00000000
Si       0.99877249       2.26735462      -2.65511777       0.00000000
Si      -2.67015908       0.09438426       2.51977404       0.00000000
Si      -2.62529642      -2.58716153      -0.21019561       0.00000000
Si       0.05067819      -2.70360245       2.57027630       0.00000000
Si       2.74413198      -2.51781500      -0.30266347       0.00000000
Si       2.82851418       0.09632277       2.47968732       0.00000000
