10
Lattice="16.290000149 0.0 0.0 0.0 16.290000149 0.0 0.0 0.0 29.1751946751" Properties=species:S:1:pos:R:3:initial_magmoms:R:1 pbc="T T T"
Si      -1.35575155      -1.34009686       1.31575168       0.00000000
Si      -1.40642974       1.36350559      -1.25452462       0.00000000
Si       1.33770223      -1.15430941      -1.55718809       0.00000000
Si       1.42208443       1.45982836       1.22516270       0.00000000
Si       0.42583689       2.38627325      -2.19624739       0.00000000
Si       2.17197830       0.84403378      -2.64746949       0.00000000
Si       0.07750782      -2.65984751       2.59861417       0.00000000
Si      -2.69184107       0.10124235       2.60494518       0.00000000
Si      -2.66022218      -2.63521703      -0.16014848       0.00000000
Si       2.76521124      -2.52089381      -0.22215452       0.00000000
