10
Lattice="16.290000149 0.0 0.0 0.0 16.290000149 0.0 0.0 0.0 29.1751946751" Properties=species:S:1:pos:R:3:initial_magmoms:R:1 pbc="T T T"
Si       0.17915742      -1.38746981      -0.61060765       0.00000000
Si      -0.69532237       1.82757512       1.92221937       0.00000000
Si      -0.51188067       1.28256058      -2.39633379       0.00000000
Si      -2.53397468       0.94631869       0.73540454       0.00000000
Si      -2.45061875       0.25417287      -1.49438265       0.00000000
Si       1.21213891       2.61799850       0.80049732       0.00000000
Si       2.05232825      -0.77841114       2.05511822       0.00000000
Si       1.01265157      -2.63205677       1.10278735       0.00000000
Si       2.91771822       0.94985362       0.67258160       0.00000000
Si       2.07392879      -1.37029689      -1.95047846       0.00000000
