10
Lattice="16.290000149 0.0 0.0 0.0 16.290000149 0.0 0.0 0.0 29.1751946751" Properties=species:S:1:pos:R:3:initial_magmoms:R:1 pbc="T T T"
Si       1.30953682       1.23491233      -1.49706676       0.00000000
Si       1.43005024      -1.36518346       1.28548825       0.00000000
Si      -1.50149818       1.33480261       1.25091565       0.00000000
Si      -1.43122312      -1.41055111      -1.31898138       0.00000000
Si       2.50372415      -2.81720892      -0.19596978       0.00000000
Si      -2.81558969      -0.15560208       2.51872373       0.00000000
Si      -0.11210778       2.60633486      -2.75203776       0.00000000
Si       0.12349449      -2.72127710       2.67367319       0.00000000
Si       2.49007313      -0.21893760      -2.90803753       0.00000000
Si       3.16477236       2.16772661      -0.38805926       0.00000000
