10
Lattice="16.290000149 0.0 0.0 0.0 16.290000149 0.0 0.0 0.0 29.1751946751" Properties=species:S:1:pos:R:3:initial_magmoms:R:1 pbc="T T T"
Si      -1.36938628       1.34837218      -1.34089195       0.00000000
Si      -1.37481085      -1.34247520       1.34237988       0.00000000
Si       1.35521398      -1.35278677      -1.36572004       0.00000000
Si       1.35765748       1.36316350       1.35714253       0.00000000
Si       0.01044189       2.69162930      -2.67632813       0.00000000
Si      -0.01255959      -2.73593810       2.64799902       0.00000000
Si       2.71797023      -2.69206913      -0.00125453       0.00000000
Si      -2.72689715       0.02678076       2.69377490       0.00000000
Si       2.71070489       0.01795158      -2.71189270       0.00000000
Si      -2.72930808      -2.69575067      -0.01829285       0.00000000
