10
Lattice="16.290000149 0.0 0.0 0.0 16.290000149 0.0 0.0 0.0 29.1751946751" Properties=species:S:1:pos:R:3:initial_magmoms:R:1 pbc="T T T"
Si       1.35990550       1.36405945      -1.34159215       0.00000000
Si      -1.35345466       1.38192958       1.33867463       0.00000000
Si       1.38686545      -1.34123716       1.34862337       0.00000000
Si      -1.35765748      -1.36316350      -1.35714253       0.00000000
Si      -2.70760979       0.02743236       2.67472350       0.00000000
Si       0.04820211      -2.78760999       2.60569499       0.00000000
Si       2.69180849       2.71842473       0.04212898       0.00000000
Si      -0.00045612       2.71647970      -2.69438758       0.00000000
Si       2.71055828       0.00294849      -2.70147715       0.00000000
Si      -2.72704376      -0.01479132      -2.69803448       0.00000000
