10
Lattice="16.290000149 0.0 0.0 0.0 16.290000149 0.0 0.0 0.0 29.1751946751" Properties=species:S:1:pos:R:3:initial_magmoms:R:1 pbc="T T T"
Si      -1.41636664       1.21992553      -1.38094949       0.00000000
Si      -1.31409151      -1.49040469       1.26780808       0.00000000
Si       1.50149818      -1.33480261      -1.25091565       0.00000000
Si       0.66419218       1.87654286       1.29698328       0.00000000
Si       0.04987998       2.60257187      -2.59568790       0.00000000
Si       0.24304680      -2.57139281       2.63367400       0.00000000
Si      -2.74409940       2.53643447       0.04274166       0.00000000
Si       0.07027506      -2.74535373      -2.56989702       0.00000000
Si      -2.70904331      -0.18963189      -2.70211901       0.00000000
Si      -0.97924078       3.53787852       1.20108441       0.00000000
