10
Lattice="16.290000149 0.0 0.0 0.0 16.290000149 0.0 0.0 0.0 29.1751946751" Properties=species:S:1:pos:R:3:initial_magmoms:R:1 pbc="T T T"
Si      -1.16740657       0.15532515      -2.01396369       0.00000000
Si       0.22334893       1.85591972       1.43279381       0.00000000
Si       2.30586581      -0.17659989      -0.60348890       0.00000000
Si      -1.16804188      -2.05056893       0.58779265       0.00000000
H       -2.71267598       0.60838264       0.01823450       0.00000000
H       -2.23396175      -0.93667501      -1.83170625       0.00000000
Si      -3.17387847      -0.68095459       0.67178803       0.00000000
Si       1.66346966       0.66982852       2.87649914       0.00000000
Si       1.87411565      -1.99047512      -2.08838961       0.00000000
Si       0.31697734      -0.90948700      -3.45425552       0.00000000
