10
Lattice="16.290000149 0.0 0.0 0.0 16.290000149 0.0 0.0 0.0 29.1751946751" Properties=species:S:1:pos:R:3:initial_magmoms:R:1 pbc="T T T"
H       -1.13070520       0.07270227       1.00108845       0.00000000
Si       0.18393039      -2.14839038      -0.87668542       0.00000000
Si       2.05508126       0.68717737       0.90586062       0.00000000
Si      -0.21424608       1.51402519      -1.83859159       0.00000000
H       -0.43567605       0.98508889       2.61943650       0.00000000
H       -2.04261941       1.83062135       1.45353737       0.00000000
Si       2.30651741      -1.59189139      -1.87027585       0.00000000
Si       3.32140071       0.40283541      -1.02705438       0.00000000
H        2.45048843      -2.35476839       0.84112086       0.00000000
Si       1.74192230       2.81321787       1.82948893       0.00000000
