10
Lattice="16.290000149 0.0 0.0 0.0 16.290000149 0.0 0.0 0.0 29.1751946751" Properties=species:S:1:pos:R:3:initial_magmoms:R:1 pbc="T T T"
Si       1.34680834       1.33289668       1.38905436       0.00000000
Si       1.33006222      -1.44042697      -1.31435711       0.00000000
Si      -1.34143264      -1.41820741       1.36011257       0.00000000
Si      -1.42750900       1.36658440      -1.33503357       0.00000000
H        0.49028013       1.65460790      -3.20886880       0.00000000
Si      -2.76521124       2.52089381       0.22215452       0.00000000
Si       2.64984545       2.68682375      -0.04520113       0.00000000
Si      -0.06566499      -2.76149712      -2.68021427       0.00000000
Si      -2.73605214      -0.08001648      -2.70588844       0.00000000
Si       2.69522939      -0.05176962       2.75121502       0.00000000
