10
Lattice="16.290000149 0.0 0.0 0.0 16.290000149 0.0 0.0 0.0 29.1751946751" Properties=species:S:1:pos:R:3:initial_magmoms:R:1 pbc="T T T"
Si       1.32704043      -1.35988921       1.36618684       0.00000000
Si      -1.34233674      -1.36067113      -1.35390408       0.00000000
Si      -1.31953074       1.33747417       1.40609851       0.00000000
Si       1.35105189       1.36603054      -1.36300674       0.00000000
Si       2.63757094       0.07172487       2.68601430       0.00000000
Si      -2.65821037       2.70334181       0.02902932       0.00000000
Si      -2.67826336       0.01501938      -2.70704961       0.00000000
Si      -2.69531899      -2.70923879       0.01980996       0.00000000
Si       2.70646135      -2.70466130       0.00956946       0.00000000
Si       0.02355697      -2.71181261      -2.70281921       0.00000000
