10
Lattice="16.290000149 0.0 0.0 0.0 16.290000149 0.0 0.0 0.0 29.1751946751" Properties=species:S:1:pos:R:3:initial_magmoms:R:1 pbc="T T T"
Si      -1.35624025      -1.34974054      -1.35466264       0.00000000
Si      -1.34399017       1.33094188       1.38695958       0.00000000
Si       1.34086249       1.35309628      -1.38550082       0.00000000
Si       1.34566804      -1.38093589       1.35407914       0.00000000
Si       0.06897186      -2.71002071      -2.62486309       0.00000000
Si      -2.70674642       2.67022424       0.02249408       0.00000000
Si       2.70520702       2.68307705      -0.00624349       0.00000000
Si      -2.69599502      -0.06025671       2.71422671       0.00000000
Si       2.69527012      -0.03541446      -2.71586052       0.00000000
Si       2.69869428      -0.02837718       2.71451846       0.00000000
