10
Lattice="16.290000149 0.0 0.0 0.0 16.290000149 0.0 0.0 0.0 29.1751946751" Properties=species:S:1:pos:R:3:initial_magmoms:R:1 pbc="T T T"
Si       1.34399017      -1.33094188      -1.38695958       0.00000000
Si      -1.36275625       1.33928236      -1.36446550       0.00000000
Si      -1.35200485      -1.39119859       1.32726713       0.00000000
Si       1.37041255       1.34850250       1.35556707       0.00000000
Si      -2.73052982      -0.04386897       2.64925355       0.00000000
Si      -2.69808014      -0.06502968      -2.70290674       0.00000000
Si       2.68965821      -2.71187777      -0.03288044       0.00000000
Si      -2.71797023       2.69206913       0.00125453       0.00000000
Si       2.71862483       2.70166394      -0.00204226       0.00000000
Si      -0.00726534       2.71002071      -2.71063816       0.00000000
