10
Lattice="16.290000149 0.0 0.0 0.0 16.290000149 0.0 0.0 0.0 29.1751946751" Properties=species:S:1:pos:R:3:initial_magmoms:R:1 pbc="T T T"
Si       1.29279070       1.43671285       1.31305881       0.00000000
Si      -1.35495334       1.36616086      -1.33712835       0.00000000
Si      -1.30697929      -1.34731985       1.42342857       0.00000000
Si       1.42535872      -1.36192546      -1.29864627       0.00000000
Si       2.53188956       0.04096935       2.68120039       0.00000000
Si      -2.65088801      -2.69285105       0.03460178       0.00000000
Si       0.06397083      -2.70480791      -2.67621143       0.00000000
Si      -2.71028135      -0.00162900      -2.67460680       0.00000000
Si       0.02036250       2.70254360      -2.69885138       0.00000000
Si       2.76048714       0.00193851      -2.66792568       0.00000000
