10
Lattice="16.290000149 0.0 0.0 0.0 16.290000149 0.0 0.0 0.0 29.1751946751" Properties=species:S:1:pos:R:3:initial_magmoms:R:1 pbc="T T T"
H        0.53458893       0.26119386      -1.38596762       0.00000000
Si       1.69049477      -0.93341701       1.30879923       0.00000000
Si      -0.85155976       1.87445774       1.11635965       0.00000000
Si      -1.79872553      -1.59635485      -0.11967665       0.00000000
H        1.80696827       2.02057904      -0.95680051       0.00000000
H       -1.07235442       1.10672632      -2.55186675       0.00000000
H       -0.16044021      -0.65119276      -3.00431567       0.00000000
Si      -2.16256268       0.50880186       2.60277747       0.00000000
Si       2.66041766      -2.38146770      -0.21207449       0.00000000
Si       0.42334452      -2.41302143       2.63708750       0.00000000
