10
Lattice="16.290000149 0.0 0.0 0.0 16.290000149 0.0 0.0 0.0 29.1751946751" Properties=species:S:1:pos:R:3:initial_magmoms:R:1 pbc="T T T"
Si       1.34821228       1.35316144      -1.35760933       0.00000000
Si      -1.34385985       1.36549297       1.35145337       0.00000000
Si       1.34513465      -1.35783667       1.36647859       0.00000000
Si      -1.37041255      -1.34850250      -1.35556707       0.00000000
Si      -2.68252319      -0.08087985       2.60852498       0.00000000
Si       2.67227190      -2.70782156      -0.02800819       0.00000000
Si       2.66226658       2.71933859       0.03716920       0.00000000
Si      -0.02016702       2.70967862      -2.69864716       0.00000000
Si       2.69116830       0.02044395       2.72029515       0.00000000
Si      -0.02642238      -2.67944438      -2.74252665       0.00000000
