10
Lattice="16.290000149 0.0 0.0 0.0 16.290000149 0.0 0.0 0.0 29.1751946751" Properties=species:S:1:pos:R:3:initial_magmoms:R:1 pbc="T T T"
H       -1.18086211      -0.53993205      -1.05319535       0.00000000
Si      -1.54103401       1.27019647       1.19530773       0.00000000
Si       1.13782393      -1.50337153       1.38194582       0.00000000
Si       1.66771972       0.78325579      -1.44924862       0.00000000
Si      -2.47687823      -1.09343368      -1.96745843       0.00000000
Si       3.08247528      -1.16590789      -1.45199109       0.00000000
Si      -0.14530680       2.59126661       2.56116489       0.00000000
Si       2.64421726      -0.11808621       2.54878293       0.00000000
Si       2.77580788       2.49064328      -0.20060864       0.00000000
Si       2.40058402      -2.93027781       0.05435339       0.00000000
