10
Lattice="16.290000149 0.0 0.0 0.0 16.290000149 0.0 0.0 0.0 29.1751946751" Properties=species:S:1:pos:R:3:initial_magmoms:R:1 pbc="T T T"
Si       1.46971706      -1.29303000       1.26920849       0.00000000
Si      -1.39908295      -1.41762260      -1.25692574       0.00000000
Si      -1.23080725       1.42959249       1.41762271       0.00000000
Si       1.38333052       1.33659288      -1.38167887       0.00000000
Si       0.15793155      -2.62622658       2.63726255       0.00000000
Si      -2.58167180       2.73026756      -0.02024759       0.00000000
Si      -2.65926107      -0.02984980      -2.69187851       0.00000000
Si       0.03021795      -2.69813064      -2.67031804       0.00000000
Si       2.70155806       0.06655768       2.71469351       0.00000000
Si       2.76278240       2.69752466      -0.04749722       0.00000000
