10
Lattice="16.290000149 0.0 0.0 0.0 16.290000149 0.0 0.0 0.0 29.1751946751" Properties=species:S:1:pos:R:3:initial_magmoms:R:1 pbc="T T T"
Si       1.46370213      -1.21194343      -1.33876216       0.00000000
Si      -1.15227316      -1.63781291       1.18273322       0.00000000
Si      -1.76797001       1.15817014      -1.02982602       0.00000000
Si       1.45825801       1.38411244       1.34865255       0.00000000
H       -2.04999878      -0.89419069       2.16240708       0.00000000
Si      -3.38186919       1.33074640       0.64777685       0.00000000
Si       2.63857277       0.31776903      -2.65748096       0.00000000
Si       2.90382285      -2.39803463       0.10494318       0.00000000
Si      -0.93486682       3.08772229      -2.04979083       0.00000000
Si       0.25034489      -2.81035083       2.64125955       0.00000000
