10
Lattice="16.290000149 0.0 0.0 0.0 16.290000149 0.0 0.0 0.0 29.1751946751" Properties=species:S:1:pos:R:3:initial_magmoms:R:1 pbc="T T T"
Si       0.46059975      -0.42360516       2.21255924       0.00000000
Si       1.82537597       1.29725416      -0.63756553       0.00000000
Si      -1.64343296       1.66133567      -0.09589886       0.00000000
Si      -0.66419218      -1.87654286      -1.29698328       0.00000000
H        1.81566713       0.15605820       2.48925678       0.00000000
Si       0.79676020       2.12151188      -2.59288708       0.00000000
Si      -2.08055882      -0.65661733      -2.67793277       0.00000000
Si      -3.40829157       0.65989162      -1.25424162       0.00000000
Si      -0.72749512       3.38801052      -1.37881970       0.00000000
Si       3.64404045      -0.16053795      -0.80287218       0.00000000
