10
Lattice="16.290000149 0.0 0.0 0.0 16.290000149 0.0 0.0 0.0 29.1751946751" Properties=species:S:1:pos:R:3:initial_magmoms:R:1 pbc="T T T"
Si       1.35440763      -1.38851074      -1.33035970       0.00000000
Si       1.36434453       1.32998077       1.37925733       0.00000000
Si      -1.34086249      -1.35309628       1.38550082       0.00000000
Si      -1.34842105       1.38466630      -1.36216066       0.00000000
Si      -2.69211800       2.68786631       0.06182224       0.00000000
Si       2.71096553       2.67758732       0.01053225       0.00000000
Si      -2.69710274      -2.70283682       0.03083818       0.00000000
Si       2.70076799      -0.05958882      -2.71149008       0.00000000
Si      -2.69522939       0.05176962      -2.75121502       0.00000000
Si       0.03377217       2.67950954       2.77041814       0.00000000
