10
Lattice="16.290000149 0.0 0.0 0.0 16.290000149 0.0 0.0 0.0 29.1751946751" Properties=species:S:1:pos:R:3:initial_magmoms:R:1 pbc="T T T"
Si       1.38530161      -1.31457043      -1.35830954       0.00000000
Si       1.37026594       1.36181143       1.32747136       0.00000000
Si      -1.35580042       1.37018449      -1.33917061       0.00000000
Si      -1.35624025      -1.35619138       1.35711336       0.00000000
Si       0.00664632      -2.67856472      -2.66308259       0.00000000
Si      -0.00825903       2.70914105       2.64945778       0.00000000
Si       0.02419065       2.68798034      -2.70270251       0.00000000
Si       2.71454933      -2.68164353       0.01733007       0.00000000
Si      -2.73608472       0.00956223       2.66780898       0.00000000
Si      -2.73507474      -2.69128721       0.01301214       0.00000000
