10
Lattice="16.290000149 0.0 0.0 0.0 16.290000149 0.0 0.0 0.0 29.1751946751" Properties=species:S:1:pos:R:3:initial_magmoms:R:1 pbc="T T T"
Si       1.32484942       1.33634528       1.33734133       0.00000000
Si      -1.41698566       1.34299485      -1.25456546       0.00000000
Si       1.23167062      -1.20100470      -1.59619532       0.00000000
Si      -1.46041480      -1.43709567       1.21451376       0.00000000
Si      -2.45666234      -0.51065078      -2.20689633       0.00000000
Si      -0.71052094      -2.05289025      -2.65811844       0.00000000
Si       2.62395571       2.62675438      -0.13490610       0.00000000
Si       2.64176447      -0.09890474       2.61317259       0.00000000
Si       2.53255745      -2.73099409      -0.27800460       0.00000000
Si      -0.11790702       2.66811469       2.61994123       0.00000000
