10
Lattice="16.290000149 0.0 0.0 0.0 16.290000149 0.0 0.0 0.0 29.1751946751" Properties=species:S:1:pos:R:3:initial_magmoms:R:1 pbc="T T T"
Si       1.72538795       0.94017736       1.27563579       0.00000000
Si      -0.86538997      -1.72826476       1.38253662       0.00000000
Si       0.73028071      -0.63381133      -2.17977215       0.00000000
Si      -1.70557931       1.66814489       0.12791572       0.00000000
H       -2.91771822      -0.94985362      -0.67258160       0.00000000
Si       0.46753929       2.34114995       2.64050099       0.00000000
Si      -2.36332064      -0.49265847       2.66268873       0.00000000
Si      -0.84378943      -2.32015051      -2.62306006       0.00000000
Si       2.97621561      -1.13917600      -1.90211183       0.00000000
Si      -2.35919927       2.09243423      -2.00326223       0.00000000
