10
Lattice="16.290000149 0.0 0.0 0.0 16.290000149 0.0 0.0 0.0 29.1751946751" Properties=species:S:1:pos:R:3:initial_magmoms:R:1 pbc="T T T"
Si      -1.26314290       1.13559220       1.62879277       0.00000000
Si       1.31527090      -1.40550121       1.35763851       0.00000000
Si      -1.39613446      -1.39199680      -1.30159296       0.00000000
Si       1.33877737       1.32278059      -1.43223948       0.00000000
H       -2.33108273       1.96301018       0.91365040       0.00000000
H       -3.01855332      -0.37870992       1.14007908       0.00000000
Si      -1.93253159      -0.73823023       3.08650220       0.00000000
Si       2.73372918       0.02200779       2.53768761       0.00000000
H       -1.86320135       3.21991401      -0.29487369       0.00000000
Si      -0.31276800      -2.46822824       2.79107417       0.00000000
