10
Lattice="16.290000149 0.0 0.0 0.0 16.290000149 0.0 0.0 0.0 29.1751946751" Properties=species:S:1:pos:R:3:initial_magmoms:R:1 pbc="T T T"
Si       1.30241809      -1.37964898       1.37718589       0.00000000
Si      -1.32250366       1.37112931       1.37295549       0.00000000
Si      -1.37424070      -1.38401470      -1.30824490       0.00000000
Si       1.35298225       1.34856766      -1.37371404       0.00000000
Si      -2.68337027       2.69322572      -0.02109367       0.00000000
Si       2.68186997      -0.01871721       2.71136754       0.00000000
Si      -0.00294849      -2.72274483      -2.67396494       0.00000000
Si      -2.69752628      -0.02013444      -2.70203148       0.00000000
Si      -2.66258423       0.01402569       2.73861717       0.00000000
Si       2.69531899       2.70923879      -0.01980996       0.00000000
