10
Lattice="16.290000149 0.0 0.0 0.0 16.290000149 0.0 0.0 0.0 29.1751946751" Properties=species:S:1:pos:R:3:initial_magmoms:R:1 pbc="T T T"
Si       1.36837930      -1.35651718       1.34103782       0.00000000
Si       1.39843021       1.33465600      -1.33461928       0.00000000
Si      -1.35065278       1.36111096       1.35988500       0.00000000
Si      -1.35751087      -1.34816041      -1.36755808       0.00000000
Si       0.08151516       2.76990601      -2.61045054       0.00000000
Si       2.69895166      -2.70604595      -0.05012298       0.00000000
Si       0.02016702      -2.70967862       2.69864716       0.00000000
Si      -2.71055828      -0.00294849       2.70147715       0.00000000
Si       2.68243360       0.00965997       2.73581636       0.00000000
Si      -2.71101440       2.71353121       0.00708957       0.00000000
