10
Lattice="16.290000149 0.0 0.0 0.0 16.290000149 0.0 0.0 0.0 29.1751946751" Properties=species:S:1:pos:R:3:initial_magmoms:R:1 pbc="T T T"
Si      -1.45831339      -1.29862252       1.30124286       0.00000000
Si      -1.36283770       1.32511006      -1.38202897       0.00000000
Si       1.36956547      -1.38807091      -1.31180428       0.00000000
Si       1.38235312       1.35122293       1.34097947       0.00000000
Si      -0.05150898       2.72464913       2.57818278       0.00000000
Si      -0.21921453      -2.69436602       2.66938444       0.00000000
Si       2.72183096       2.67641444      -0.04157465       0.00000000
Si       2.72329706      -0.04326624      -2.68893182       0.00000000
Si       0.00938304      -2.73339686      -2.67974163       0.00000000
Si      -0.01063737       2.67639815      -2.74559005       0.00000000
