10
Lattice="16.290000149 0.0 0.0 0.0 16.290000149 0.0 0.0 0.0 29.1751946751" Properties=species:S:1:pos:R:3:initial_magmoms:R:1 pbc="T T T"
Si      -1.38727270      -1.35966115       1.31498437       0.00000000
Si      -1.36969579       1.34242633      -1.35311635       0.00000000
Si       1.35208630      -1.36925596      -1.35139502       0.00000000
Si       1.37694484       1.36381510       1.33809113       0.00000000
Si       2.77040775      -0.08594604       2.53684153       0.00000000
Si       0.00711873       2.69803127      -2.68543079       0.00000000
Si      -0.06781527      -2.80202664       2.59236192       0.00000000
Si      -2.68998401       2.71116101       0.03013798       0.00000000
Si      -2.67906971       0.00918756       2.72516741       0.00000000
Si       2.72689715      -0.02678076      -2.69377490       0.00000000
