10
Lattice="16.290000149 0.0 0.0 0.0 16.290000149 0.0 0.0 0.0 29.1751946751" Properties=species:S:1:pos:R:3:initial_magmoms:R:1 pbc="T T T"
Si      -1.25187022       1.30600189      -1.50812416       0.00000000
Si       1.34488612       1.44923986       1.28942690       0.00000000
Si      -1.61679880      -1.03874815       1.37934485       0.00000000
Si       1.77130946      -1.55510857      -0.60964487       0.00000000
H       -0.85646305      -1.73594387      -1.57286392       0.00000000
H       -0.26011872      -2.18044910      -1.79001489       0.00000000
H        1.24670629       0.55420210      -2.69966829       0.00000000
Si      -0.05396877      -2.31982634       2.51087560       0.00000000
Si       0.01444923       1.02165994      -3.44103916       0.00000000
Si       1.02916963      -3.43689681       0.66116826       0.00000000
