10
Lattice="16.290000149 0.0 0.0 0.0 16.290000149 0.0 0.0 0.0 29.1751946751" Properties=species:S:1:pos:R:3:initial_magmoms:R:1 pbc="T T T"
Si       0.60820345      -1.30671214       0.44311286       0.00000000
Si      -1.51646381       1.46228815       0.63202224       0.00000000
H        2.01323225       0.34586928      -1.41444261       0.00000000
Si      -0.04285899       2.66817170      -0.75671702       0.00000000
Si       1.10519506       1.24537051      -2.22142850       0.00000000
Si      -2.83140109      -0.23711724      -0.50420571       0.00000000
Si      -1.61675808      -1.51860431      -2.11289677       0.00000000
Si      -0.23066640       1.62103420       2.65899807       0.00000000
Si      -0.23382666      -2.96499180      -0.95615866       0.00000000
Si       2.91294525      -1.22738635       0.08081529       0.00000000
