10
Lattice="16.290000149 0.0 0.0 0.0 16.290000149 0.0 0.0 0.0 29.1751946751" Properties=species:S:1:pos:R:3:initial_magmoms:R:1 pbc="T T T"
Si       1.35141841       1.38660481       1.32248240       0.00000000
Si      -1.33813066       1.35900955      -1.36411540       0.00000000
Si       1.38828268      -1.35104374      -1.33318970       0.00000000
Si      -1.35105189      -1.36603054       1.36300674       0.00000000
Si       2.66146022      -0.04072500       2.62042846       0.00000000
Si      -2.66526790       2.70899444       0.03037138       0.00000000
Si       0.04012227      -2.71259453      -2.68376781       0.00000000
Si      -2.69115689       0.00645084      -2.72455473       0.00000000
Si      -2.69338862      -2.72670167       0.00910266       0.00000000
Si       0.02036250       2.71160084      -2.72566339       0.00000000
