10
Lattice="10.86 0.0 0.0 0.0 10.86 0.0 0.0 0.0 10.86" Properties=species:S:1:pos:R:3:initial_magmoms:R:1 pbc="T T T"
Si      -1.27593054       1.42567908       1.28866932       0.00000000
Si      -1.27593054      -1.28932092      -1.42633068       0.00000000
Si       1.43906946      -1.28932092       1.28866932       0.00000000
Si      -2.63343054       0.06817908       2.64616932       0.00000000
Si      -2.63343054      -2.64682092      -0.06883068       0.00000000
Si       0.08156946      -2.64682092       2.64616932       0.00000000
Si      -2.63343054       2.78317908      -0.06883068       0.00000000
Si      -2.63343054       0.06817908      -2.78383068       0.00000000
Si       0.08156946       2.78317908       2.64616932       0.00000000
Si       0.08156946      -2.64682092      -2.78383068       0.00000000
