10
Lattice="10.86 0.0 0.0 0.0 10.86 0.0 0.0 0.0 10.86" Properties=species:S:1:pos:R:3:initial_magmoms:R:1 pbc="T T T"
Si       1.10583036       1.75403118       0.61756476       0.00000000
Si       0.95645106      -1.38005622      -1.57341852       0.00000000
Si      -1.75854894      -1.38005622       1.14158148       0.00000000
Si      -1.75854894       1.33494378      -1.57341852       0.00000000
Si       2.24470770       0.18419646       2.52212640       0.00000000
Si      -0.17140338       2.59227114       2.31101886       0.00000000
Si       2.31395106      -2.73755622      -0.21591852       0.00000000
Si       2.18103552      -0.02312094      -2.89385334       0.00000000
Si       0.74663586       3.43023960      -1.21970832       0.00000000
Si      -0.40104894      -2.73755622       2.49908148       0.00000000
