10
Lattice="10.86 0.0 0.0 0.0 10.86 0.0 0.0 0.0 10.86" Properties=species:S:1:pos:R:3:initial_magmoms:R:1 pbc="T T T"
Si       1.22237988       1.45495764       1.18668306       0.00000000
Si      -1.49262012      -1.26004236       1.18668306       0.00000000
Si       1.22237988      -1.26004236      -1.52831694       0.00000000
Si       2.57987988       0.09745764       2.54418306       0.00000000
Si      -0.13512012      -2.61754236       2.54418306       0.00000000
Si       2.57987988      -2.61754236      -0.17081694       0.00000000
Si       0.12826746       2.48117334       2.80417146       0.00000000
Si       2.57987988       2.81245764      -0.17081694       0.00000000
Si       2.57987988       0.09745764      -2.88581694       0.00000000
Si      -2.85012012      -2.61754236      -0.17081694       0.00000000
