10
Lattice="10.86 0.0 0.0 0.0 10.86 0.0 0.0 0.0 10.86" Properties=species:S:1:pos:R:3:initial_magmoms:R:1 pbc="T T T"
Si      -1.21262760      -1.23194754       1.25443860       0.00000000
Si       1.61879160       1.47398436       0.76987626       0.00000000
Si      -1.21262760       1.48305246      -1.46056140       0.00000000
Si       1.50237240      -1.23194754      -1.46056140       0.00000000
Si      -2.57012760      -2.58944754      -0.10306140       0.00000000
Si      -2.57012760       0.12555246       2.61193860       0.00000000
Si       0.14487240      -2.58944754       2.61193860       0.00000000
Si       0.15404910       2.82982278       2.45419710       0.00000000
Si      -2.57012760       0.12555246      -2.81806140       0.00000000
Si       0.14487240      -2.58944754      -2.81806140       0.00000000
