10
Lattice="10.86 0.0 0.0 0.0 10.86 0.0 0.0 0.0 10.86" Properties=species:S:1:pos:R:3:initial_magmoms:R:1 pbc="T T T"
Si       1.39419594       1.09432962       1.32649470       0.00000000
Si      -1.32080406      -1.62067038       1.32649470       0.00000000
Si      -1.20438486       1.08526152      -1.87306764       0.00000000
Si       1.39419594      -1.62067038      -1.38850530       0.00000000
Si       2.70617082       2.34836640       0.00442002       0.00000000
Si      -2.66912736       2.44109994      -0.18874680       0.00000000
Si       0.03669594       2.45182962       2.68399470       0.00000000
Si      -2.67830406      -0.26317038       2.68399470       0.00000000
Si       2.75169594      -0.26317038       2.68399470       0.00000000
Si      -2.82317646      -0.38872284      -2.64294390       0.00000000
