10
Lattice="10.86 0.0 0.0 0.0 10.86 0.0 0.0 0.0 10.86" Properties=species:S:1:pos:R:3:initial_magmoms:R:1 pbc="T T T"
Si       1.28746386      -1.30557834      -1.24240572       0.00000000
Si       1.28746386       1.40942166       1.47259428       0.00000000
Si      -1.42753614      -1.30557834       1.47259428       0.00000000
Si       2.64496386       0.05192166      -2.59990572       0.00000000
Si      -0.07003614      -2.66307834      -2.59990572       0.00000000
Si       2.64496386      -2.66307834       0.11509428       0.00000000
Si       2.64496386       2.76692166       0.11509428       0.00000000
Si      -2.78503614      -2.66307834       0.11509428       0.00000000
Si       2.64496386       0.05192166       2.83009428       0.00000000
Si       0.15580842       2.97972336      -2.47733976       0.00000000
