10
Lattice="10.86 0.0 0.0 0.0 10.86 0.0 0.0 0.0 10.86" Properties=species:S:1:pos:R:3:initial_magmoms:R:1 pbc="T T T"
Si      -1.52010678       1.19110308      -1.06568094       0.00000000
Si       1.19489322      -1.52389692      -1.06568094       0.00000000
Si       1.19489322       1.19110308       1.64931906       0.00000000
Si      -0.16260678       2.54860308      -2.42318094       0.00000000
Si       2.55239322      -0.16639692      -2.42318094       0.00000000
Si       0.06323778      -2.66859522      -2.30061498       0.00000000
Si       2.55239322       2.54860308       0.29181906       0.00000000
Si      -2.87760678       2.54860308       0.29181906       0.00000000
Si       2.55239322      -2.88139692       0.29181906       0.00000000
Si      -0.16260678       2.54860308       3.00681906       0.00000000
