10
Lattice="10.86 0.0 0.0 0.0 10.86 0.0 0.0 0.0 10.86" Properties=species:S:1:pos:R:3:initial_magmoms:R:1 pbc="T T T"
Si      -1.11690756       1.32509376      -1.53680946       0.00000000
Si       1.59809244       1.32509376       1.17819054       0.00000000
Si      -1.36421148      -1.33697460       1.46346102       0.00000000
Si       1.59809244      -1.38990624      -1.53680946       0.00000000
Si      -2.28645354      -2.69549544      -0.25966260       0.00000000
Si      -2.49331482       0.11114124       2.53659192       0.00000000
Si      -2.47440756       2.68259376      -0.17930946       0.00000000
Si       0.24059244       2.68259376       2.53569054       0.00000000
Si      -2.47440756      -0.03240624      -2.89430946       0.00000000
Si       0.24059244       2.68259376      -2.89430946       0.00000000
