10
Lattice="16.28999089631971 0.0 0.0 0.0 16.28999089631971 0.0 0.0 0.0 34.474598006748145" Properties=species:S:1:pos:R:3:initial_magmoms:R:1 pbc="T T T"
Si       0.28957104      -1.84125870      -1.43866025       0.00000000
Si      -0.17559480       2.00777508      -1.27021727       0.00000000
Si      -2.38458626      -0.33738219      -0.04116269       0.00000000
Si       1.32141222      -0.77406822       1.86576629       0.00000000
Si      -1.79163026      -2.61229698      -0.44810108       0.00000000
Si      -1.38666086       1.09939581      -3.04697010       0.00000000
Si      -0.05223389      -0.76460373      -3.46449219       0.00000000
Si      -2.88279962       0.82634283       1.93271599       0.00000000
Si       2.14395948       2.48971473      -1.49699131       0.00000000
Si       0.47473947       2.61734688       2.56991034       0.00000000
