10
Lattice="16.28999089631971 0.0 0.0 0.0 16.28999089631971 0.0 0.0 0.0 34.474598006748145" Properties=species:S:1:pos:R:3:initial_magmoms:R:1 pbc="T T T"
Si       0.12219129       1.72056446       1.57328363       0.00000000
Si      -0.98978040       0.68733374      -2.01752355       0.00000000
Si       2.23151823      -0.87948963      -0.07153483       0.00000000
Si      -1.52707347      -1.72780767       0.72534595       0.00000000
Si       1.43444853      -2.57270481      -1.45968977       0.00000000
Si      -2.08191087       1.17525671       2.42797835       0.00000000
Si       0.99373887       0.86255713      -3.30532288       0.00000000
Si      -1.66052115      -1.11383757       2.97098804       0.00000000
Si      -0.32413842      -3.56600385      -0.16268572       0.00000000
Si       2.28824001      -2.22476670       1.86993772       0.00000000
