10
Lattice="16.28999089631971 0.0 0.0 0.0 16.28999089631971 0.0 0.0 0.0 34.474598006748145" Properties=species:S:1:pos:R:3:initial_magmoms:R:1 pbc="T T T"
Si      -0.22968900      -1.83752340       1.43386828       0.00000000
Si      -1.50169365       0.20334807      -1.81884633       0.00000000
Si      -0.73982664       2.03260104       1.00538326       0.00000000
Si       2.36840310       0.08441478      -0.32730202       0.00000000
Si       0.07915311       3.43108125      -0.69256059       0.00000000
Si      -0.72742995       2.32736859      -2.64309996       0.00000000
Si      -1.15649226      -3.50292734       0.02957922       0.00000000
Si      -3.70579581      -0.34195968      -0.96415162       0.00000000
Si      -1.75031163      -1.42260733       3.13532854       0.00000000
Si       0.04365720       2.22166278       3.22106692       0.00000000
