10
Lattice="16.28999089631971 0.0 0.0 0.0 16.28999089631971 0.0 0.0 0.0 34.474598006748145" Properties=species:S:1:pos:R:3:initial_magmoms:R:1 pbc="T T T"
Si      -0.94871331      -1.75482559      -1.31337949       0.00000000
Si       0.84525552       1.88944452      -1.22764112       0.00000000
Si      -2.40557688       0.26937144       0.71496909       0.00000000
Si       2.69162928      -0.19841220       0.77895398       0.00000000
Si       1.78224003       0.62221284       2.82840102       0.00000000
Si       0.57190932      -2.16974166      -3.01483976       0.00000000
Si      -0.69206436      -3.74212970       0.10256199       0.00000000
Si       0.06177168       1.70038278      -3.44332477       0.00000000
Si       3.21623244       1.65977181      -1.30231314       0.00000000
Si       0.03891681       2.57769702       2.92874944       0.00000000
