10
Lattice="16.28999089631971 0.0 0.0 0.0 16.28999089631971 0.0 0.0 0.0 34.474598006748145" Properties=species:S:1:pos:R:3:initial_magmoms:R:1 pbc="T T T"
Si       0.52527105      -2.27959002       0.01368642       0.00000000
Si       0.88181028       0.88011612       2.00373371       0.00000000
Si      -2.35766799       0.31284945      -0.15072303       0.00000000
Si       1.43910747       0.92180223      -1.68846333       0.00000000
Si       1.30987890       3.15530784      -0.91154336       0.00000000
Si       2.86624179      -2.06601183       0.21332893       0.00000000
Si      -2.40127632       2.04221214      -1.73814125       0.00000000
Si       3.46190193      -0.16550640      -1.06157689       0.00000000
Si       1.59021351       3.06392094       1.43997029       0.00000000
Si      -3.17485584      -1.99673046      -0.47643921       0.00000000
