10
Lattice="16.28999089631971 0.0 0.0 0.0 16.28999089631971 0.0 0.0 0.0 34.474598006748145" Properties=species:S:1:pos:R:3:initial_magmoms:R:1 pbc="T T T"
Si       0.81897975       1.39848021      -1.69794385       0.00000000
Si       0.78348384       0.18906174       2.21568365       0.00000000
Si      -2.31765975       0.46064862      -0.18919670       0.00000000
Si       0.73982664      -2.03260104      -1.00538326       0.00000000
Si      -0.76186701      -1.82925297      -2.82422960       0.00000000
Si       0.01239669       0.29476755      -3.64848322       0.00000000
Si       3.15446076      -0.04061097       2.14101163       0.00000000
Si      -0.06177168      -1.70038278       3.44332477       0.00000000
Si       3.15995049       1.61205840      -1.49830134       0.00000000
Si       3.10822974      -1.94818626      -1.33268528       0.00000000
