10
Lattice="16.28999089631971 0.0 0.0 0.0 16.28999089631971 0.0 0.0 0.0 34.474598006748145" Properties=species:S:1:pos:R:3:initial_magmoms:R:1 pbc="T T T"
Si      -1.32792822       1.33731126       1.40263428       0.00000000
Si       1.40053275      -1.37499003       1.38809288       0.00000000
Si      -1.51853751      -1.18016163      -1.49509662       0.00000000
Si       1.00703151       1.79593992      -1.33396226       0.00000000
Si       0.42922521      -1.60865379      -2.81905982       0.00000000
Si       1.46254878       0.55570077      -3.28887991       0.00000000
Si      -2.69899236       2.60428230      -0.10236893       0.00000000
Si      -2.64106512      -2.78555742      -0.10448222       0.00000000
Si      -2.67732666      -0.01016496       2.76374043       0.00000000
Si       0.03666879       2.70088200       2.76146511       0.00000000
