10
Lattice="16.28999089631971 0.0 0.0 0.0 16.28999089631971 0.0 0.0 0.0 34.474598006748145" Properties=species:S:1:pos:R:3:initial_magmoms:R:1 pbc="T T T"
Si       1.09216305      -2.03340414      -0.40617994       0.00000000
Si      -2.15698985      -0.74925855       0.53408077       0.00000000
Si      -0.22028967       0.92888838      -2.20347964       0.00000000
Si       0.84059658       1.71058032       1.65336817       0.00000000
Si       0.82966599       2.96644158      -1.81874291       0.00000000
Si      -3.30976052       1.31422833       0.58689588       0.00000000
Si       0.32039172       3.60137691       0.37704889       0.00000000
Si      -2.06264957      -1.35990549       2.83439961       0.00000000
Si       2.08194345      -2.72073788       1.61134361       0.00000000
Si      -0.61067952      -3.44754134      -1.52577761       0.00000000
