10
Lattice="16.28999089631971 0.0 0.0 0.0 16.28999089631971 0.0 0.0 0.0 34.474598006748145" Properties=species:S:1:pos:R:3:initial_magmoms:R:1 pbc="T T T"
Si       1.35739683       1.35655175      -1.35895494       0.00000000
Si      -1.35808101      -1.35943308      -1.35840334       0.00000000
Si      -1.36212093       1.35728280       1.35998918       0.00000000
Si       1.35940050      -1.36404315       1.35912731       0.00000000
Si       2.71564074       2.71325004      -0.00282692       0.00000000
Si      -2.71541268      -2.71399545      -0.00224085       0.00000000
Si      -0.00074934       2.71346670      -2.71611720       0.00000000
Si      -2.71630863       2.71355303      -0.00206848       0.00000000
Si       2.71397916      -0.00149868      -2.71594482       0.00000000
Si       2.71538010      -2.71489140      -0.00155136       0.00000000
