10
Lattice="16.28999089631971 0.0 0.0 0.0 16.28999089631971 0.0 0.0 0.0 34.474598006748145" Properties=species:S:1:pos:R:3:initial_magmoms:R:1 pbc="T T T"
Si       0.37462113      -1.10956077       1.96974173       0.00000000
Si      -0.61401897       2.28863490       0.49488313       0.00000000
Si      -1.97874630      -1.57079583      -0.30506589       0.00000000
Si       2.03602194      -0.80145171      -1.57417997       0.00000000
Si      -1.08359451       2.82886343      -1.75634385       0.00000000
Si       1.17195147      -3.21608583       1.28866119       0.00000000
Si      -1.94347845       0.86229553      -2.98922511       0.00000000
Si      -0.71247573      -3.14291115      -1.85166617       0.00000000
Si      -2.59856451       1.92587452       1.90513630       0.00000000
Si       0.79076547      -1.98166221      -3.14222347       0.00000000
