10
Lattice="16.28999089631971 0.0 0.0 0.0 16.28999089631971 0.0 0.0 0.0 34.474598006748145" Properties=species:S:1:pos:R:3:initial_magmoms:R:1 pbc="T T T"
Si       1.63422909      -1.34336692       0.99338610       0.00000000
Si      -1.40761890      -1.18177012      -1.63864751       0.00000000
Si       1.22163597       1.61876499      -1.41925104       0.00000000
Si       0.21841632      -0.30999870       3.41036704       0.00000000
Si       1.09529073       2.26337658       2.39029759       0.00000000
Si       3.03810129       0.66957927       1.63644113       0.00000000
Si      -2.71639008      -2.69892298      -0.32719859       0.00000000
Si       1.40019066      -3.64794580       0.39259694       0.00000000
Si       0.07087779      -2.50516972      -3.16973421       0.00000000
Si      -2.64676662       0.20215890      -3.17304377       0.00000000
