10
Lattice="16.28999089631971 0.0 0.0 0.0 16.28999089631971 0.0 0.0 0.0 34.474598006748145" Properties=species:S:1:pos:R:3:initial_magmoms:R:1 pbc="T T T"
Si      -0.35471475      -0.79066610      -2.31952120       0.00000000
Si      -2.25797319       1.03223377       0.11097379       0.00000000
Si       1.08853038       2.22120829       0.50653555       0.00000000
Si       0.47972421      -1.47586327       2.01738565       0.00000000
Si      -0.63342036       1.31559832      -3.33521237       0.00000000
Si       2.74010832       1.53722377       2.19168932       0.00000000
Si       1.47580884       0.07455118       3.53644558       0.00000000
Si      -1.73337003       2.89041778      -1.97029333       0.00000000
Si       3.19689621       2.45602864      -0.78278066       0.00000000
Si       1.55812221      -1.24017676      -3.69512738       0.00000000
