10
Lattice="16.28999089631971 0.0 0.0 0.0 16.28999089631971 0.0 0.0 0.0 34.474598006748145" Properties=species:S:1:pos:R:3:initial_magmoms:R:1 pbc="T T T"
Si       1.97350092       0.77020749      -1.23090729       0.00000000
Si       1.41846804      -1.17858150       1.65005861       0.00000000
Si      -1.25713188       1.52000361       1.62098271       0.00000000
Si      -1.58490297      -1.34763912      -1.54648793       0.00000000
Si      -2.67589314      -2.59169013       0.17391410       0.00000000
Si       2.75354757      -2.52579708       0.31571510       0.00000000
Si       2.67631668       2.67675651       0.20207642       0.00000000
Si      -2.57569335       2.91558420       0.18897951       0.00000000
Si       0.08891082      -2.53913859       3.01565680       0.00000000
Si      -2.62756071       0.16962777       3.01538101       0.00000000
