10
Lattice="16.28999089631971 0.0 0.0 0.0 16.28999089631971 0.0 0.0 0.0 34.474598006748145" Properties=species:S:1:pos:R:3:initial_magmoms:R:1 pbc="T T T"
Si      -1.34698752      -1.34529336      -1.38739650       0.00000000
Si       1.36603053       1.37086866      -1.38622436       0.00000000
Si      -1.31588991       1.46686563       1.35688646       0.00000000
Si       1.15950591      -1.28102931       1.75162083       0.00000000
Si       2.15694261       0.63895896       2.90552074       0.00000000
Si       0.49247928       2.44387467       2.74342109       0.00000000
Si       2.70311373      -2.69063559       0.00872208       0.00000000
Si      -2.70889668      -2.69763540      -0.00217190       0.00000000
Si       0.00853596      -2.70225362      -2.74762700       0.00000000
Si       2.70739800       2.74479984      -0.03409540       0.00000000
