10
Lattice="16.28999089631971 0.0 0.0 0.0 16.28999089631971 0.0 0.0 0.0 34.474598006748145" Properties=species:S:1:pos:R:3:initial_magmoms:R:1 pbc="T T T"
Si       0.29668977      -0.65471139       2.19351647       0.00000000
Si       0.16281855      -2.03014125      -1.18668528       0.00000000
Si      -2.27015811       0.18726984      -0.68711360       0.00000000
Si       1.25895636       2.04284745       0.23446187       0.00000000
Si      -2.07788724      -1.65814281      -2.11625886       0.00000000
Si      -0.71332281       1.17716427       3.17032028       0.00000000
Si      -0.11766267       3.07766970       1.89541446       0.00000000
Si      -2.33002386       2.10364173      -2.08805862       0.00000000
Si       2.57067603      -1.17527463       2.61965722       0.00000000
Si       2.32122726      -2.28949434      -2.12701494       0.00000000
