10
Lattice="16.28999089631971 0.0 0.0 0.0 16.28999089631971 0.0 0.0 0.0 34.474598006748145" Properties=species:S:1:pos:R:3:initial_magmoms:R:1 pbc="T T T"
Si      -0.70768647      -0.20808846      -2.19999770       0.00000000
Si      -0.44072595       2.28991788       0.18571476       0.00000000
Si       2.36219661      -0.09269010      -0.16165148       0.00000000
Si      -0.71317620      -1.86075783       1.43931527       0.00000000
Si       0.39275190       2.34188298       2.37754198       0.00000000
Si       2.66519061       1.63408248       1.43328221       0.00000000
Si       0.38677347      -3.43557729       0.07439622       0.00000000
Si       2.58219306      -2.40888375      -0.39304511       0.00000000
Si       0.30232611      -2.03996412      -3.17680151       0.00000000
Si      -3.08415312      -1.63108512       1.51398729       0.00000000
