10
Lattice="16.28999089631971 0.0 0.0 0.0 16.28999089631971 0.0 0.0 0.0 34.474598006748145" Properties=species:S:1:pos:R:3:initial_magmoms:R:1 pbc="T T T"
Si      -0.22159287       2.24008677       0.68969919       0.00000000
Si       2.16067302      -0.08226450      -0.93733037       0.00000000
Si      -0.86255550      -0.59697963      -2.12080951       0.00000000
Si      -0.22393863      -1.34768799       1.98180785       0.00000000
Si      -2.56163508       1.98171108       0.35774310       0.00000000
Si       1.97438058      -1.86650820       2.52605863       0.00000000
Si      -1.39483125      -3.23009523       1.18796084       0.00000000
Si      -0.18800289      -2.86532955      -2.37992073       0.00000000
Si      -0.35481249       2.19804228       3.01470186       0.00000000
Si       3.18322890       2.00309985      -0.35529541       0.00000000
