10
Lattice="16.28999089631971 0.0 0.0 0.0 16.28999089631971 0.0 0.0 0.0 34.474598006748145" Properties=species:S:1:pos:R:3:initial_magmoms:R:1 pbc="T T T"
Si      -1.39955535       1.23138083       1.49365416       0.00000000
Si      -1.78111602      -1.05347430      -1.22269198       0.00000000
Si       1.73742624       0.99351081      -1.39689223       0.00000000
Si       1.31277852      -1.49776776       1.49324047       0.00000000
Si       2.73351087       2.54392526       0.12216770       0.00000000
Si      -0.04000824       2.56904770       2.87666549       0.00000000
Si      -2.94453153       2.50494329       0.02834158       0.00000000
Si       2.75654493      -2.72130966       0.03991816       0.00000000
Si       3.59451882      -0.74987757      -1.26233779       0.00000000
Si       2.67799455      -0.15051960       2.87666549       0.00000000
