10
Lattice="16.28999089631971 0.0 0.0 0.0 16.28999089631971 0.0 0.0 0.0 34.474598006748145" Properties=species:S:1:pos:R:3:initial_magmoms:R:1 pbc="T T T"
Si      -0.52916436      -0.24667947       2.28739086       0.00000000
Si       0.86933214      -1.81739385      -1.28614455       0.00000000
Si      -1.85847723       0.89609661      -1.27494030       0.00000000
Si       1.77702723       1.85222187       0.03950791       0.00000000
Si       2.21838849      -0.47962647      -2.66909382       0.00000000
Si      -0.51095214       2.24951868      -2.66454317       0.00000000
Si      -0.29512593       2.05789941       2.88818001       0.00000000
Si      -2.90647809      -0.99774621       2.08812757       0.00000000
Si       2.38342248      -3.05528724       0.10514758       0.00000000
Si       3.56361669       0.87588072      -1.28552400       0.00000000
