10
Lattice="16.28999089631971 0.0 0.0 0.0 16.28999089631971 0.0 0.0 0.0 34.474598006748145" Properties=species:S:1:pos:R:3:initial_magmoms:R:1 pbc="T T T"
Si      -1.35655719       1.35600865      -1.35574880       0.00000000
Si      -1.35566124      -1.35814874       1.35726568       0.00000000
Si       1.35919662       1.35719131       1.35754148       0.00000000
Si       1.36048516      -1.35666635      -1.36209213       0.00000000
Si      -2.69860884       0.00332059      -2.71235257       0.00000000
Si      -2.71344903       2.71432587       0.00082739       0.00000000
Si      -2.71309065      -0.00031562       2.71494506       0.00000000
Si       0.00177194       2.71430958       2.71511743       0.00000000
Si      -2.71367709      -2.71588766       0.00055159       0.00000000
Si       0.00143729      -2.71590395       2.71442794       0.00000000
