10
Lattice="16.28999089631971 0.0 0.0 0.0 16.28999089631971 0.0 0.0 0.0 34.474598006748145" Properties=species:S:1:pos:R:3:initial_magmoms:R:1 pbc="T T T"
Si      -1.35712733      -1.35676152       1.35716226       0.00000000
Si       1.35752039       1.35816246       1.35678304       0.00000000
Si      -1.35505850       1.35716877      -1.36250582       0.00000000
Si       1.35624651      -1.35654975      -1.36291952       0.00000000
Si      -2.71470335      -2.71492398       0.00051712       0.00000000
Si      -2.71476851       0.00091224       2.71487611       0.00000000
Si       0.00051762      -2.71494027       2.71480716       0.00000000
Si       2.71559163       0.00027693       2.71449689       0.00000000
Si       0.00028769       2.71554300       2.71463479       0.00000000
Si      -2.71361192       2.71692765      -0.00065502       0.00000000
