10
Lattice="16.28999089631971 0.0 0.0 0.0 16.28999089631971 0.0 0.0 0.0 34.474598006748145" Properties=species:S:1:pos:R:3:initial_magmoms:R:1 pbc="T T T"
Si      -1.22218983      -1.62051291      -1.10132612       0.00000000
Si       1.44950049      -0.83877210       1.72149001       0.00000000
Si       0.54864720       1.27843661      -1.96284681       0.00000000
Si      -1.49302737       1.38391110       1.34264844       0.00000000
Si       1.03444758       3.22492220      -0.74599624       0.00000000
Si      -0.23120397      -2.22772266       2.77817151       0.00000000
Si      -1.12396113       3.48427529       0.19433342       0.00000000
Si      -2.46329235      -0.46978731      -2.77868863       0.00000000
Si       2.61301374       1.07420237       2.61183148       0.00000000
Si       0.13895370      -3.17483955      -2.27267019       0.00000000
