10
Lattice="16.28999089631971 0.0 0.0 0.0 16.28999089631971 0.0 0.0 0.0 34.474598006748145" Properties=species:S:1:pos:R:3:initial_magmoms:R:1 pbc="T T T"
Si      -1.34442999      -1.35283563      -1.40091055       0.00000000
Si       1.36735002       1.36044306      -1.40132424       0.00000000
Si      -1.51604514       1.40372559       1.41473487       0.00000000
Si       1.32998076      -1.50421860       1.52491575       0.00000000
Si       2.71466890      -2.70681971      -0.03961134       0.00000000
Si      -2.72497491      -2.69887833      -0.01144557       0.00000000
Si       2.71716941       2.71793763      -0.02547674       0.00000000
Si      -2.72069064       2.73655710      -0.05426305       0.00000000
Si      -2.70743058       0.00356751      -2.76555380       0.00000000
Si       0.00922014      -2.71174091      -2.76665699       0.00000000
