10
Lattice="16.28999089631971 0.0 0.0 0.0 16.28999089631971 0.0 0.0 0.0 34.474598006748145" Properties=species:S:1:pos:R:3:initial_magmoms:R:1 pbc="T T T"
Si       1.38468814      -1.20260111      -1.56452708       0.00000000
Si       1.78874693       1.13072148       1.32975494       0.00000000
Si      -1.32998076       1.50421860      -1.52491575       0.00000000
Si      -0.36748611      -1.73749303       1.81570914       0.00000000
Si       2.77390097      -2.43899419      -0.11645526       0.00000000
Si       3.63378491      -0.47242629       1.11642601       0.00000000
Si       0.03645702      -2.55844190      -2.93220410       0.00000000
Si       0.24216944      -0.23498325       3.88673730       0.00000000
Si      -2.67441075       0.15138297      -2.92582629       0.00000000
Si       1.21827601      -3.56315147       1.25466922       0.00000000
