10
Lattice="16.28999089631971 0.0 0.0 0.0 16.28999089631971 0.0 0.0 0.0 34.474598006748145" Properties=species:S:1:pos:R:3:initial_magmoms:R:1 pbc="T T T"
Si       1.68262668       1.40844969       0.82428810       0.00000000
Si       1.38320019      -1.89503199      -0.46571760       0.00000000
Si      -1.21898070      -1.37127591       1.54553157       0.00000000
Si      -0.91072503       1.21064022      -2.09009262       0.00000000
Si      -0.85056606      -1.87796007      -2.74638591       0.00000000
Si      -2.79337662      -0.28416276      -1.99252945       0.00000000
Si       3.47892565       0.88686018      -0.69842127       0.00000000
Si       2.13180714      -2.43065371       1.75217242       0.00000000
Si       0.40055481      -1.73946249       3.29105039       0.00000000
Si      -1.70478108      -3.31776149       0.32868100       0.00000000
