10
Lattice="16.28999089631971 0.0 0.0 0.0 16.28999089631971 0.0 0.0 0.0 34.474598006748145" Properties=species:S:1:pos:R:3:initial_magmoms:R:1 pbc="T T T"
Si      -1.40594103       0.86811202       1.65674668       0.00000000
Si       0.04096935       1.78253325      -1.61230890       0.00000000
Si      -1.16351325      -1.91297447      -0.89034147       0.00000000
Si       2.26483128      -0.13385933       0.90709613       0.00000000
Si       0.56060406      -3.53891195      -0.87865457       0.00000000
Si       1.77222168       1.09134203      -3.15118687       0.00000000
Si      -3.60979884       0.20213447       1.10498043       0.00000000
Si      -1.32911739       3.26493954       1.38884443       0.00000000
Si      -2.61301374      -1.07420237      -2.61183148       0.00000000
Si       3.48827285       1.81633500       0.26335160       0.00000000
