10
Lattice="16.28999089631971 0.0 0.0 0.0 16.28999089631971 0.0 0.0 0.0 34.474598006748145" Properties=species:S:1:pos:R:3:initial_magmoms:R:1 pbc="T T T"
Si       1.35688695       1.35769005      -1.35681751       0.00000000
Si       1.35538827      -1.35658233       1.35964443       0.00000000
Si      -1.35818705      -1.35752715      -1.35650724       0.00000000
Si      -1.35755551       1.35610992       1.36533274       0.00000000
Si       2.69605527       0.02360421       2.70467162       0.00000000
Si       2.71358331      -2.71452650      -0.00037922       0.00000000
Si       2.71420233       0.00026064      -2.71411767       0.00000000
Si      -0.00076237      -2.71464542      -2.71408319       0.00000000
Si      -2.71583200       0.00065160      -2.71415214       0.00000000
Si      -0.00118428       2.71557558      -2.71453136       0.00000000
