10
Lattice="16.28999089631971 0.0 0.0 0.0 16.28999089631971 0.0 0.0 0.0 34.474598006748145" Properties=species:S:1:pos:R:3:initial_magmoms:R:1 pbc="T T T"
Si       0.38668943       2.10095388       0.99373084       0.00000000
Si      -1.87411563      -0.82891665       1.18523734       0.00000000
Si      -0.21302433       0.23535792      -2.35906359       0.00000000
Si       2.21588702      -0.90459999      -0.00141346       0.00000000
Si      -0.45807480       3.33122355      -0.83080380       0.00000000
Si       0.76141156       2.38194009      -2.63572239       0.00000000
Si      -0.98326440       2.00336049       2.98967328       0.00000000
Si       0.90730154      -1.65060054      -3.22444543       0.00000000
Si       3.61829312       0.99903312      -0.23918489       0.00000000
Si      -1.81765449      -3.13766577       1.34426875       0.00000000
