10
Lattice="16.28999089631971 0.0 0.0 0.0 16.28999089631971 0.0 0.0 0.0 34.474598006748145" Properties=species:S:1:pos:R:3:initial_magmoms:R:1 pbc="T T T"
Si      -0.91812069       0.43997661      -2.09491907       0.00000000
Si       1.15277067      -2.06348688      -0.05281511       0.00000000
Si       1.27215356       2.00352339       0.50963827       0.00000000
Si      -1.77383439      -0.57133917       1.67074338       0.00000000
Si       0.12678507      -0.78817536       3.11288557       0.00000000
Si       1.10122096       1.35840681       2.83622676       0.00000000
Si      -2.20019256      -2.70793557       0.37184322       0.00000000
Si       3.30976052      -1.31422833      -0.58689588       0.00000000
Si      -0.46894023      -3.39912679      -1.16703474       0.00000000
Si      -2.65474872       1.76883336       1.86476652       0.00000000
