10
Lattice="16.28999089631971 0.0 0.0 0.0 16.28999089631971 0.0 0.0 0.0 34.474598006748145" Properties=species:S:1:pos:R:3:initial_magmoms:R:1 pbc="T T T"
Si       0.12658959       0.28258263      -2.41167185       0.00000000
Si      -1.97350092      -0.77020749       1.23090729       0.00000000
Si       0.70281576       1.90654902       1.43298370       0.00000000
Si       1.90197153      -1.64276505       0.29209175       0.00000000
Si      -0.55503288      -1.94878899       2.88096589       0.00000000
Si       2.20006224       0.76062897       2.86851366       0.00000000
Si       0.78004665      -3.29600457       1.54662238       0.00000000
Si       1.17574704      -1.72999800      -3.11733279       0.00000000
Si       1.78738767       2.02487958      -2.71001519       0.00000000
Si       0.33229971       3.58606431      -1.40518540       0.00000000
