10
Lattice="16.28999089631971 0.0 0.0 0.0 16.28999089631971 0.0 0.0 0.0 34.474598006748145" Properties=species:S:1:pos:R:3:initial_magmoms:R:1 pbc="T T T"
Si       1.11584871       1.58763969      -1.25039437       0.00000000
Si      -1.71180207      -1.14228738      -1.26242601       0.00000000
Si       0.41037768       1.14881967       2.09485012       0.00000000
Si       1.54179963      -1.93031613       0.10476836       0.00000000
Si      -0.58256298      -0.65050857       3.18531674       0.00000000
Si       0.86167584      -2.38422069       2.32631270       0.00000000
Si       2.29755789       0.10638999      -2.66471554       0.00000000
Si      -0.42740073      -2.60120349      -2.66571531       0.00000000
Si       3.01019652       2.38734837       0.05381488       0.00000000
Si      -0.39824163       2.82553308      -2.64168650       0.00000000
