10
Lattice="16.28999089631971 0.0 0.0 0.0 16.28999089631971 0.0 0.0 0.0 34.474598006748145" Properties=species:S:1:pos:R:3:initial_magmoms:R:1 pbc="T T T"
Si      -2.11884030      -0.49730112       0.89640900       0.00000000
Si       1.54375510      -1.21244841       1.30079626       0.00000000
Si       0.67033350       2.26388646      -0.47409494       0.00000000
Si       0.21422979      -1.09535589      -2.14883737       0.00000000
Si       2.55285707      -0.61414929      -1.95922697       0.00000000
Si       2.53842087       0.49071996       2.50313301       0.00000000
Si       2.74555311       1.76015079      -1.57624845       0.00000000
Si      -2.42888787      -2.78137089       0.37105031       0.00000000
Si      -1.01331945       2.84239323      -2.19430939       0.00000000
Si      -2.01212451      -0.90357372      -3.02559584       0.00000000
