10
Lattice="16.28999089631971 0.0 0.0 0.0 16.28999089631971 0.0 0.0 0.0 34.474598006748145" Properties=species:S:1:pos:R:3:initial_magmoms:R:1 pbc="T T T"
Si      -2.16067302       0.08226450       0.93733037       0.00000000
Si      -0.28571031       0.10963170      -2.34789381       0.00000000
Si       1.02255588       2.08536435       0.58203496       0.00000000
Si       1.00810665      -1.98933480       0.97249448       0.00000000
Si      -3.02322852      -0.51471513      -1.18347914       0.00000000
Si       2.63215449      -0.75004047       2.27522132       0.00000000
Si       2.53570140      -2.47958235      -0.80601655       0.00000000
Si      -0.59575788      -2.17443807      -2.87325250       0.00000000
Si       2.03919849       1.52487432       2.68215970       0.00000000
Si      -2.38226589       2.32235127       1.62702956       0.00000000
