10
Lattice="16.28999089631971 0.0 0.0 0.0 16.28999089631971 0.0 0.0 0.0 34.474598006748145" Properties=species:S:1:pos:R:3:initial_magmoms:R:1 pbc="T T T"
Si       0.39889323      -2.27553381       0.20615821       0.00000000
Si      -2.19831921       0.51882021      -0.54425078       0.00000000
Si       0.10163331       0.56158146       2.31159204       0.00000000
Si       1.19439909      -0.20509110      -2.49089452       0.00000000
Si       2.81844693       1.03420323      -1.18816768       0.00000000
Si       0.23465745      -2.62216872      -2.12208507       0.00000000
Si       2.77114077      -2.08331181       0.65429376       0.00000000
Si       3.51339855       0.11665269       0.85231596       0.00000000
Si      -2.92369662       1.86512355       1.29479768       0.00000000
Si      -1.97438058       1.86650820      -2.52605863       0.00000000
