10
Lattice="16.28999089631971 0.0 0.0 0.0 16.28999089631971 0.0 0.0 0.0 34.474598006748145" Properties=species:S:1:pos:R:3:initial_magmoms:R:1 pbc="T T T"
Si      -1.43956589       1.69214004      -0.79219223       0.00000000
Si      -0.17093260      -0.64511658       2.32658850       0.00000000
Si      -1.27215356      -2.00352339      -0.50963827       0.00000000
Si       2.35799868       0.28362519      -0.71948526       0.00000000
Si       2.87820354      -1.60717140       0.55683402       0.00000000
Si       2.12246157      -0.80733240       2.72425321       0.00000000
Si      -2.19027425      -1.56354678      -2.60455733       0.00000000
Si      -2.57390375       0.79215012      -2.64079016       0.00000000
Si      -2.96716064       2.18238759       0.98631880       0.00000000
Si      -1.14536849      -2.79169875       2.60324730       0.00000000
