10
Lattice="16.28999089631971 0.0 0.0 0.0 16.28999089631971 0.0 0.0 0.0 34.474598006748145" Properties=species:S:1:pos:R:3:initial_magmoms:R:1 pbc="T T T"
Si      -0.34180493       1.07665497      -2.02583193       0.00000000
Si      -0.28957104       1.84125870       1.43866025       0.00000000
Si       2.15795259      -0.96111000       0.16406470       0.00000000
Si      -2.08120130      -0.77103828       0.99055918       0.00000000
Si      -2.67415730       1.50387651       1.39749756       0.00000000
Si      -1.33647070      -0.62651340      -3.22816869       0.00000000
Si       1.03184118       1.06719048       3.30442654       0.00000000
Si       1.76972931       1.73802897      -2.78837599       0.00000000
Si      -1.38624968      -1.68858882       3.03104283       0.00000000
Si      -1.67623190       2.94065451      -1.60830985       0.00000000
