10
Lattice="16.28999089631971 0.0 0.0 0.0 16.28999089631971 0.0 0.0 0.0 34.474598006748145" Properties=species:S:1:pos:R:3:initial_magmoms:R:1 pbc="T T T"
Si      -1.35716394      -1.35703845      -1.35681751       0.00000000
Si      -1.35763226       1.35692442       1.35681751       0.00000000
Si       1.35792300      -1.35741312       1.35723121       0.00000000
Si       1.35873750       1.35708732      -1.35754148       0.00000000
Si       0.00117125      -2.71202436       2.71491058       0.00000000
Si       0.00008634       2.71386513       2.71435899       0.00000000
Si      -2.71564304       0.00040725       2.71287658       0.00000000
Si      -2.71238504      -0.00184077      -2.71639299       0.00000000
Si       2.71536870       0.00259011       2.71346265       0.00000000
Si       2.71476597      -2.71459818      -0.00024132       0.00000000
