10
Lattice="16.28999089631971 0.0 0.0 0.0 16.28999089631971 0.0 0.0 0.0 34.474598006748145" Properties=species:S:1:pos:R:3:initial_magmoms:R:1 pbc="T T T"
Si       1.50324120       1.16124894      -1.29055730       0.00000000
Si      -1.22841261      -1.50433263      -1.24249968       0.00000000
Si       1.06075593      -1.55176911       1.42462908       0.00000000
Si      -1.26627057       1.57211532       1.54660028       0.00000000
Si      -1.21608108      -2.61848718       1.69039391       0.00000000
Si       0.10419084       2.53545705      -2.57732239       0.00000000
Si       2.74849767       2.34145944       0.27748619       0.00000000
Si       1.88442720      -0.07317468       3.14032736       0.00000000
Si      -2.60059262      -0.18329508      -2.60169594       0.00000000
Si       0.71247573       3.14291115       1.85166617       0.00000000
