10
Lattice="16.28999089631971 0.0 0.0 0.0 16.28999089631971 0.0 0.0 0.0 34.474598006748145" Properties=species:S:1:pos:R:3:initial_magmoms:R:1 pbc="T T T"
Si      -0.13344768       0.61397010       2.24564209       0.00000000
Si       1.20293505      -1.83819618      -0.88803167       0.00000000
Si      -2.31955428      -0.48193965       0.22677403       0.00000000
Si       1.52707347       1.72780767      -0.72534595       0.00000000
Si       1.99446615      -0.25790328       2.69636324       0.00000000
Si      -0.55483740       2.90306438       1.70263240       0.00000000
Si      -2.14395948      -2.48971473       1.49699131       0.00000000
Si       0.53729307       2.41514141      -2.74286950       0.00000000
Si      -0.08465913      -2.59294446      -2.73004494       0.00000000
Si       2.96152200      -0.84489714      -2.18503572       0.00000000
