10
Lattice="10.86 0.0 0.0 0.0 10.86 0.0 0.0 0.0 10.86" Properties=species:S:1:pos:R:3:initial_magmoms:R:1 pbc="T T T"
Si      -1.23120906      -1.48130400       1.40225406       0.00000000
Si       1.48379094       1.23369600       1.40225406       0.00000000
Si       1.48379094      -1.48130400      -1.31274594       0.00000000
Si      -1.57822950       1.85017476      -1.26424518       0.00000000
Si      -2.38344420       0.20119236      -2.76763842       0.00000000
Si      -2.58870906      -0.12380400       2.75975406       0.00000000
Si       0.12629094       2.59119600       2.75975406       0.00000000
Si      -2.58870906      -2.83880400       0.04475406       0.00000000
Si       2.85203148       2.61440382      -0.01190256       0.00000000
Si      -2.75535576       2.74524510       0.26040108       0.00000000
