10
Lattice="10.86 0.0 0.0 0.0 10.86 0.0 0.0 0.0 10.86" Properties=species:S:1:pos:R:3:initial_magmoms:R:1 pbc="T T T"
Si       0.90220536      -1.04093100      -1.61825946       0.00000000
Si       0.90220536       1.67406900       1.09674054       0.00000000
Si      -1.81279464      -1.04093100       1.09674054       0.00000000
Si       2.25970536      -2.39843100      -0.26075946       0.00000000
Si       2.25970536       0.31656900       2.45424054       0.00000000
Si      -0.45529464      -2.39843100       2.45424054       0.00000000
Si       2.25970536       0.31656900      -2.97575946       0.00000000
Si       2.25970536       3.03156900      -0.26075946       0.00000000
Si      -0.45529464      -2.39843100      -2.97575946       0.00000000
Si      -3.13135068       0.21004326       2.30201592       0.00000000
