10
Lattice="10.86 0.0 0.0 0.0 10.86 0.0 0.0 0.0 10.86" Properties=species:S:1:pos:R:3:initial_magmoms:R:1 pbc="T T T"
Si       1.22905878      -1.04314644      -1.40825964       0.00000000
Si      -1.48594122      -1.04314644       1.30674036       0.00000000
Si       1.34705268       1.28955984       1.73455920       0.00000000
Si      -1.48594122       1.67185356      -1.40825964       0.00000000
Si       2.67862986      -2.29185096      -0.09856536       0.00000000
Si       1.16299740      -0.47608068       3.32716734       0.00000000
Si      -0.39087312      -2.27423604       2.77635900       0.00000000
Si      -0.12844122      -2.40064644      -2.76575964       0.00000000
Si       2.57372226       2.68162722      -0.04256034       0.00000000
Si      -2.84344122      -2.40064644      -0.05075964       0.00000000
