10
Lattice="16.28999089631971 0.0 0.0 0.0 16.28999089631971 0.0 0.0 0.0 34.51007289658418" Properties=species:S:1:pos:R:3:initial_magmoms:R:1 pbc="T T T"
Si      -1.09509429       1.43987147       1.52670922       0.00000000
Si       0.93093278       1.89094157      -1.26739146       0.00000000
Si       1.62250843      -1.27123155       1.49550175       0.00000000
Si      -1.84015002      -0.85171288      -1.63792632       0.00000000
Si       1.44354650       0.70502957      -3.23557103       0.00000000
Si      -2.44630092       2.74144247       0.06886489       0.00000000
Si      -2.54667990      -2.73731526       0.16091711       0.00000000
Si      -2.43804189       0.08908024       2.89115889       0.00000000
Si      -3.60469911       0.89259263      -1.19334912       0.00000000
Si       0.27215866      -2.62932885       2.88998555       0.00000000
