10
Lattice="16.28999089631971 0.0 0.0 0.0 16.28999089631971 0.0 0.0 0.0 34.51007289658418" Properties=species:S:1:pos:R:3:initial_magmoms:R:1 pbc="T T T"
Si      -1.38721455       1.30034925      -1.34893048       0.00000000
Si       1.34195570      -1.44184419      -1.34472025       0.00000000
Si       1.30006434       1.44039438       1.41173885       0.00000000
Si      -1.55094534      -0.99320130       1.57938888       0.00000000
Si       2.14392706      -0.29581011       2.75663165       0.00000000
Si      -0.02270823       2.64614760      -2.72001645       0.00000000
Si      -2.86150842       2.49131115       0.20868253       0.00000000
Si      -2.56242402      -2.81794194       0.30613903       0.00000000
Si       0.00683903      -1.44513477       3.53776759       0.00000000
Si       2.69873188      -0.07293033      -2.71542660       0.00000000
