10
Lattice="16.28999089631971 0.0 0.0 0.0 16.28999089631971 0.0 0.0 0.0 34.51007289658418" Properties=species:S:1:pos:R:3:initial_magmoms:R:1 pbc="T T T"
Si       1.03016005      -1.74273678       1.17289450       0.00000000
Si      -0.38277265      -0.99031797      -2.09859322       0.00000000
Si       1.95240211       1.37816073       0.11681666       0.00000000
Si      -1.98945927       0.85117923       1.14735703       0.00000000
Si      -1.62177768       0.90861615      -2.66597364       0.00000000
Si      -0.42864040       2.83550975      -1.82154620       0.00000000
Si       1.44470797       2.43301643       2.13324135       0.00000000
Si      -0.82337153       2.17164338       2.69071738       0.00000000
Si       3.14937502      -2.13698736       0.09379843       0.00000000
Si      -0.37238125      -3.60116514       1.19332448       0.00000000
