10
Lattice="16.28999089631971 0.0 0.0 0.0 16.28999089631971 0.0 0.0 0.0 34.51007289658418" Properties=species:S:1:pos:R:3:initial_magmoms:R:1 pbc="T T T"
Si      -1.23900504       1.89893412      -0.56738043       0.00000000
Si       0.38277265       0.99031797       2.09859322       0.00000000
Si       1.85043323      -0.33787089      -1.47537546       0.00000000
Si      -1.65013206      -1.73576466      -0.12192416       0.00000000
Si      -0.91569511       1.63272619      -3.00130821       0.00000000
Si       0.83641331       2.88353267      -1.97397727       0.00000000
Si       1.41293270      -0.75241881       3.27148772       0.00000000
Si       0.92838665      -1.81980477      -3.07761002       0.00000000
Si      -0.04586775       3.82582772       0.27704702       0.00000000
Si      -1.21006567      -3.43246590       1.43513669       0.00000000
