10
Lattice="16.28999089631971 0.0 0.0 0.0 16.28999089631971 0.0 0.0 0.0 34.51007289658418" Properties=species:S:1:pos:R:3:initial_magmoms:R:1 pbc="T T T"
Si      -0.92204658      -1.48193388      -1.60223456       0.00000000
Si      -1.85043323       0.33787089       1.47537546       0.00000000
Si       0.86040522       1.88546391      -1.27483732       0.00000000
Si       1.99207152      -0.69225984       1.26717607       0.00000000
Si      -1.01401992       3.22140356      -0.49860181       0.00000000
Si      -1.76590931       0.25427061      -2.94712736       0.00000000
Si      -2.76612834       1.97059708      -1.52593275       0.00000000
Si       3.67106553       1.00773198       0.90685620       0.00000000
Si      -3.08943827       2.23680501       0.90799504       0.00000000
Si       0.84251880      -2.55355524      -2.89529320       0.00000000
