10
Lattice="16.28999089631971 0.0 0.0 0.0 16.28999089631971 0.0 0.0 0.0 34.51007289658418" Properties=species:S:1:pos:R:3:initial_magmoms:R:1 pbc="T T T"
Si       1.35348723      -1.35611807      -1.35690231       0.00000000
Si       1.36425492       1.35205371       1.35065599       0.00000000
Si      -1.36052451       1.36008468      -1.35548740       0.00000000
Si      -1.37060802      -1.36707472       1.36798005       0.00000000
Si      -0.04253319       2.64942189       2.64109186       0.00000000
Si      -2.54275497       0.09187560       2.82292554       0.00000000
Si       2.71179630      -2.71211300       0.00200159       0.00000000
Si       2.71151937       0.00206883      -2.71377012       0.00000000
Si      -0.00278559      -2.71280440      -2.71387365       0.00000000
Si       2.70945054       2.72057661       0.00096628       0.00000000
