10
Lattice="16.28999089631971 0.0 0.0 0.0 16.28999089631971 0.0 0.0 0.0 34.51007289658418" Properties=species:S:1:pos:R:3:initial_magmoms:R:1 pbc="T T T"
Si       0.67798980       1.68523308      -1.43934692       0.00000000
Si      -1.82223198      -0.87231321      -1.25751325       0.00000000
Si       1.51104411      -1.86152346      -0.09507530       0.00000000
Si       1.79691732       1.25516079       1.87106818       0.00000000
Si       2.08477791       0.38786490      -2.72978280       0.00000000
Si       2.62451448       2.27084229      -0.17482813       0.00000000
Si       1.19943270      -2.49012361       2.14531988       0.00000000
Si      -0.65008503      -2.33126353      -2.71245874       0.00000000
Si      -1.35125550      -2.36933652       2.53652629       0.00000000
Si       3.38546925      -1.00463688      -1.26890158       0.00000000
