10
Lattice="16.28999089631971 0.0 0.0 0.0 16.28999089631971 0.0 0.0 0.0 34.51007289658418" Properties=species:S:1:pos:R:3:initial_magmoms:R:1 pbc="T T T"
Si       1.82594610       0.94670964      -1.09486718       0.00000000
Si       0.16421949      -1.42939537       1.88708086       0.00000000
Si      -1.07131185      -1.77353188      -1.18431734       0.00000000
Si      -1.01941191       1.69850943       1.35562544       0.00000000
Si      -1.71020565      -0.09345573       2.66331636       0.00000000
Si       0.29903553       2.22078312      -2.52800229       0.00000000
Si      -2.43697748      -0.48934345      -2.55305662       0.00000000
Si       2.29692258      -0.55031367       2.69917235       0.00000000
Si       0.74288916       2.99035530       2.25637336       0.00000000
Si      -2.46209503      -3.06058868       0.21479081       0.00000000
