10
Lattice="16.28999089631971 0.0 0.0 0.0 16.28999089631971 0.0 0.0 0.0 34.51007289658418" Properties=species:S:1:pos:R:3:initial_magmoms:R:1 pbc="T T T"
Si       1.71010791      -0.62607357      -1.51920328       0.00000000
Si      -1.99233216       0.61165692      -1.15073902       0.00000000
Si      -0.42953472      -1.89835515       1.37498560       0.00000000
Si       0.40749435       2.20167495       0.87331239       0.00000000
Si       2.87559225      -0.39400623       2.06484235       0.00000000
Si      -1.54996092       2.49974937       2.14179985       0.00000000
Si      -2.89408140       2.28708342       0.21285825       0.00000000
Si       2.33974899       1.95087411       2.18055468       0.00000000
Si       1.45329606      -2.11693437       2.79065860       0.00000000
Si       3.64521330      -1.06818417      -0.03947955       0.00000000
