10
Lattice="16.28999089631971 0.0 0.0 0.0 16.28999089631971 0.0 0.0 0.0 34.51007289658418" Properties=species:S:1:pos:R:3:initial_magmoms:R:1 pbc="T T T"
Si       0.82603332       1.68624306      -1.36342472       0.00000000
Si      -0.27388377      -1.83751200      -1.46619578       0.00000000
Si       2.00420757       0.13752018       1.25734070       0.00000000
Si      -1.86919605       0.52605297       1.38168056       0.00000000
Si       0.84204639      -0.02125845       3.36452693       0.00000000
Si       2.26460322       0.45480051      -2.85308736       0.00000000
Si       3.09394341      -1.85624550       0.91562177       0.00000000
Si      -0.84545100       2.16311652      -2.94719638       0.00000000
Si      -2.56147218      -1.87287759      -2.08799862       0.00000000
Si       1.84428864       3.32806329       0.05155808       0.00000000
