10
Lattice="16.28999089631971 0.0 0.0 0.0 16.28999089631971 0.0 0.0 0.0 34.51007289658418" Properties=species:S:1:pos:R:3:initial_magmoms:R:1 pbc="T T T"
Si       1.35742941       1.35765747      -1.38247429       0.00000000
Si      -1.35739683      -1.35980775      -1.38230174       0.00000000
Si      -1.39313709       1.32901965       1.47761862       0.00000000
Si       1.45008693      -1.33419987       1.46457380       0.00000000
Si       2.70570384      -2.69894349      -0.02139626       0.00000000
Si       2.70448209       2.70513369      -0.01159539       0.00000000
Si      -2.71298384       2.70145215      -0.00831693       0.00000000
Si      -2.70761466      -2.70995553      -0.02177587       0.00000000
Si       0.00043983       2.71218726      -2.74075701       0.00000000
Si       2.71399545      -0.00047241      -2.73965269       0.00000000
