10
Lattice="16.28999089631971 0.0 0.0 0.0 16.28999089631971 0.0 0.0 0.0 34.51007289658418" Properties=species:S:1:pos:R:3:initial_magmoms:R:1 pbc="T T T"
Si       1.81951155      -1.02775239      -1.12975689       0.00000000
Si      -1.02627000       1.72527390      -1.30503365       0.00000000
Si      -1.36849032      -2.22821136       0.20271228       0.00000000
Si       0.88163109       1.41323895       2.03740682       0.00000000
Si       1.15931043      -2.21553774       1.88528634       0.00000000
Si       0.25756119      -0.54011124       3.24888361       0.00000000
Si      -2.27295999       0.27842868      -2.62739136       0.00000000
Si      -3.25005048      -1.21368645      -0.93408467       0.00000000
Si       0.57026403      -2.38479084      -2.64043617       0.00000000
Si      -2.79083538       2.79689526      -0.01197500       0.00000000
