10
Lattice="16.28999089631971 0.0 0.0 0.0 16.28999089631971 0.0 0.0 0.0 34.51007289658418" Properties=species:S:1:pos:R:3:initial_magmoms:R:1 pbc="T T T"
Si      -0.62406990      -1.95335019       1.21147679       0.00000000
Si      -0.75834837       2.17333035       0.82002881       0.00000000
Si       2.46379734      -0.18380007       0.30341273       0.00000000
Si      -0.88163109      -1.41323895      -2.03740682       0.00000000
Si       0.27767934      -3.62877669      -0.15212049       0.00000000
Si       0.72005058      -1.74068424       3.14041839       0.00000000
Si       2.67750585      -2.03875866       1.87193093       0.00000000
Si      -1.90790109       0.31203495      -3.34244047       0.00000000
Si      -1.06870545       2.05679169       3.22061984       0.00000000
Si      -2.75041989       2.86559019      -0.44714726       0.00000000
