10
Lattice="16.28999089631971 0.0 0.0 0.0 16.28999089631971 0.0 0.0 0.0 34.51007289658418" Properties=species:S:1:pos:R:3:initial_magmoms:R:1 pbc="T T T"
Si       1.18055259      -1.49569893       1.41953123       0.00000000
Si      -1.56828717       1.21472901       1.39782783       0.00000000
Si      -1.08183519      -1.79253531      -1.32078892       0.00000000
Si       2.30439969       2.32812675       0.01705489       0.00000000
Si       0.45752094       2.10917123      -2.76696885       0.00000000
Si       2.51792901      -0.14941188       2.79607324       0.00000000
Si      -0.20704590       2.57701188       2.78975789       0.00000000
Si       2.58150888      -2.88272727      -0.05993368       0.00000000
Si       0.57943530      -3.70503018      -1.07092753       0.00000000
Si      -2.78894411      -2.75924907       0.05832206       0.00000000
