10
Lattice="16.28999089631971 0.0 0.0 0.0 16.28999089631971 0.0 0.0 0.0 34.51007289658418" Properties=species:S:1:pos:R:3:initial_magmoms:R:1 pbc="T T T"
Si       0.62195220       1.85670162      -1.37063733       0.00000000
Si       1.49545458      -1.89253962      -0.18028072       0.00000000
Si      -1.97881146      -0.80257572      -1.25851404       0.00000000
Si       1.09498122       0.71325765       2.55961354       0.00000000
Si       2.02531941       0.54532404      -2.75884030       0.00000000
Si      -0.71640162      -2.18689992      -2.76425838       0.00000000
Si       3.31985313      -0.91065987      -1.30513718       0.00000000
Si       1.13394690       3.08114503       2.08865431       0.00000000
Si       0.57163239      -3.64017969      -1.38451039       0.00000000
Si       1.44555831       3.70974518      -0.15174088       0.00000000
