10
Lattice="16.28999089631971 0.0 0.0 0.0 16.28999089631971 0.0 0.0 0.0 34.51007289658418" Properties=species:S:1:pos:R:3:initial_magmoms:R:1 pbc="T T T"
Si      -1.90104300      -1.12493853      -0.87396808       0.00000000
Si       1.24579404      -1.59505164       1.30558581       0.00000000
Si      -0.91062729       1.42501662       1.74879892       0.00000000
Si       1.06267815       1.40152644      -1.76011823       0.00000000
Si       2.99716452      -0.09857079       1.60168240       0.00000000
Si      -3.21048207      -1.50798159       1.05863159       0.00000000
Si      -3.25853757       0.56905857      -1.91261833       0.00000000
Si      -3.03740082       0.47210049       2.28139317       0.00000000
Si      -1.86491178       3.38453162       0.73651439       0.00000000
Si      -2.52143136       2.73600324      -1.40790823       0.00000000
