10
Lattice="16.28999089631971 0.0 0.0 0.0 16.28999089631971 0.0 0.0 0.0 34.51007289658418" Properties=species:S:1:pos:R:3:initial_magmoms:R:1 pbc="T T T"
Si      -2.12677353      -0.95291613       0.53259425       0.00000000
Si       1.19772225       0.55721574       2.00707245       0.00000000
Si      -0.95428449       1.95951500      -1.01228453       0.00000000
Si       0.91062729      -1.42501662      -1.74879892       0.00000000
Si       2.64039723       2.19344591       1.09051891       0.00000000
Si       2.15642133      -3.02006826      -0.44321311       0.00000000
Si      -1.61080407       1.31098662      -3.15670715       0.00000000
Si      -0.99041571      -2.54995515      -2.62276701       0.00000000
Si      -2.29985478      -2.93299821      -0.69016733       0.00000000
Si      -3.01557222       2.36520279      -0.09265960       0.00000000
