10
Lattice="16.28999089631971 0.0 0.0 0.0 16.28999089631971 0.0 0.0 0.0 34.51007289658418" Properties=species:S:1:pos:R:3:initial_magmoms:R:1 pbc="T T T"
Si      -1.04842440      -2.02369041      -0.12271789       0.00000000
Si       2.06413848       0.28626417       0.99144044       0.00000000
Si      -1.85145624       1.50428376      -0.01056009       0.00000000
Si       0.54218007      -0.29170503      -2.31293540       0.00000000
Si      -2.65116492      -1.26871407      -1.69824164       0.00000000
Si      -1.61665218       2.22202116      -2.25181803       0.00000000
Si       3.42792099       1.35654975      -0.58449743       0.00000000
Si       2.82484890       0.19245006      -2.52141087       0.00000000
Si       0.00693954      -3.57585048      -1.50001567       0.00000000
Si      -3.87431586      -0.21714570       0.24805854       0.00000000
