10
Lattice="16.28999089631971 0.0 0.0 0.0 16.28999089631971 0.0 0.0 0.0 34.51007289658418" Properties=species:S:1:pos:R:3:initial_magmoms:R:1 pbc="T T T"
Si      -1.35870003       1.35563588       1.36263099       0.00000000
Si       1.35786924      -1.36013077       1.36318315       0.00000000
Si       1.35008262       1.38619592      -1.36411492       0.00000000
Si      -1.35713619      -1.38306401      -1.37569651       0.00000000
Si       2.70252729      -0.01775447      -2.61721088       0.00000000
Si       2.71274112       2.71269062       0.00486592       0.00000000
Si      -2.71280628       2.71303271       0.00158746       0.00000000
Si       2.71340901      -2.71612197       0.00886909       0.00000000
Si      -2.71067229      -2.72120445       0.00690202       0.00000000
Si       2.71409319      -0.00050336       2.71960232       0.00000000
