10
Lattice="16.28999089631971 0.0 0.0 0.0 16.28999089631971 0.0 0.0 0.0 34.51007289658418" Properties=species:S:1:pos:R:3:initial_magmoms:R:1 pbc="T T T"
Si       1.35553977      -1.35599119      -1.35431406       0.00000000
Si      -1.35883035      -1.35633328       1.35686780       0.00000000
Si       1.35622395       1.35962741       1.35641917       0.00000000
Si      -1.35786924       1.36013077      -1.36318315       0.00000000
Si       0.01989009      -2.69770075      -2.71472260       0.00000000
Si       2.71112841      -0.02510127      -2.70873165       0.00000000
Si       2.71371852      -2.71182418       0.00017255       0.00000000
Si      -0.00079821      -2.71342060       2.71380463       0.00000000
Si       2.71425609       0.00138206       2.71421875       0.00000000
Si      -2.71570590       0.00156131       2.71356306       0.00000000
