10
Lattice="16.28999089631971 0.0 0.0 0.0 16.28999089631971 0.0 0.0 0.0 34.51007289658418" Properties=species:S:1:pos:R:3:initial_magmoms:R:1 pbc="T T T"
Si       1.35760860       1.35628911       1.35631564       0.00000000
Si       1.35698958      -1.35705474      -1.35752350       0.00000000
Si      -1.35780408      -1.35684297       1.35793762       0.00000000
Si      -1.35783666       1.35795069      -1.35762703       0.00000000
Si       2.71217097       0.00364896       2.71439130       0.00000000
Si       0.00317655       2.71050939       2.71725564       0.00000000
Si       2.71423980      -2.71485882      -0.00034510       0.00000000
Si       2.71492398       2.71459818       0.00034510       0.00000000
Si      -0.00092853      -2.71552671      -2.71456385       0.00000000
Si      -2.71570590      -2.71446786      -0.00024157       0.00000000
