10
Lattice="16.28999089631971 0.0 0.0 0.0 16.28999089631971 0.0 0.0 0.0 34.51007289658418" Properties=species:S:1:pos:R:3:initial_magmoms:R:1 pbc="T T T"
Si      -1.34519562      -1.36852290       1.34968971       0.00000000
Si      -1.35456237       1.35264015      -1.35807566       0.00000000
Si       1.34169327       1.37337732       1.35124266       0.00000000
Si       1.35848826      -1.36032903      -1.35779958       0.00000000
Si       2.65616595       0.02093265       2.67197840       0.00000000
Si      -2.75198373      -0.07115472       2.64012558       0.00000000
Si      -2.70899442       2.70686043       0.00286434       0.00000000
Si       2.71389771       2.71085148       0.00289885       0.00000000
Si       0.00275301       2.71094922      -2.71404620       0.00000000
Si      -2.71217097      -0.00364896      -2.71439130       0.00000000
