10
Lattice="16.28999089631971 0.0 0.0 0.0 16.28999089631971 0.0 0.0 0.0 34.51007289658418" Properties=species:S:1:pos:R:3:initial_magmoms:R:1 pbc="T T T"
Si       1.57599234       1.04907600      -1.48293317       0.00000000
Si      -1.88563266       1.54259784      -0.25026719       0.00000000
Si      -1.12467789      -1.73288133      -1.34434064       0.00000000
Si       1.56812427      -0.35207577       2.18224568       0.00000000
Si      -2.71322982       0.52691634       1.79562912       0.00000000
Si       0.26151966       2.40152067      -2.80366891       0.00000000
Si      -2.42536923      -0.34037955      -2.80522186       0.00000000
Si       2.67792939       2.72031597      -0.24419341       0.00000000
Si       3.33018099       1.25561691       1.45774080       0.00000000
Si      -2.99910303      -2.58976791      -0.17051437       0.00000000
