10
Lattice="16.28999089631971 0.0 0.0 0.0 16.28999089631971 0.0 0.0 0.0 34.51007289658418" Properties=species:S:1:pos:R:3:initial_magmoms:R:1 pbc="T T T"
Si      -0.91421109       0.37320390       2.11998947       0.00000000
Si       1.42229619       1.72292814      -0.72581626       0.00000000
Si      -1.88283078       0.21857922      -1.41567300       0.00000000
Si       0.70328817      -2.26722591      -0.30451705       0.00000000
Si      -1.48669056      -3.17104398      -0.43172125       0.00000000
Si       3.15856584       1.64568096       0.78524264       0.00000000
Si      -2.10900114      -1.94577534      -2.36111149       0.00000000
Si       2.19191724       1.04875020      -2.83013815       0.00000000
Si      -3.13230636      -0.51756588       1.99033506       0.00000000
Si      -1.45329606       2.11693437      -2.79065860       0.00000000
