10
Lattice="16.28999089631971 0.0 0.0 0.0 16.28999089631971 0.0 0.0 0.0 34.51007289658418" Properties=species:S:1:pos:R:3:initial_magmoms:R:1 pbc="T T T"
Si      -1.19350314       1.34855136       1.52177428       0.00000000
Si       1.01165787       1.87926327      -1.06309788       0.00000000
Si      -1.88434575      -0.91570977      -1.26857860       0.00000000
Si       1.51565418      -1.36500426       1.49628858       0.00000000
Si      -2.55388267       2.62690911       0.03133516       0.00000000
Si      -2.53840880      -0.00837306       2.89035136       0.00000000
Si      -0.71840529       3.67551270      -1.14789829       0.00000000
Si      -3.57413026       0.89717175      -1.35330088       0.00000000
Si       2.86238106       2.69438229       0.18682384       0.00000000
Si       0.17285319       2.70754461       2.88821173       0.00000000
