10
Lattice="16.28999089631971 0.0 0.0 0.0 16.28999089631971 0.0 0.0 0.0 34.51007289658418" Properties=species:S:1:pos:R:3:initial_magmoms:R:1 pbc="T T T"
Si      -1.93225464       0.25080084      -1.30724229       0.00000000
Si      -0.36825174       0.11500740       2.33850738       0.00000000
Si       1.55188314       1.80387315      -0.36756699       0.00000000
Si       0.53584326      -2.34488034      -0.11571234       0.00000000
Si       2.27211291      -2.42212752       1.39534656       0.00000000
Si       1.62763164      -0.98852607       3.17882812       0.00000000
Si      -2.33974899      -1.95087411      -2.18055468       0.00000000
Si       3.62379195      -1.15652484      -0.17627755       0.00000000
Si       1.76176350       3.11191128       1.60137181       0.00000000
Si      -3.88970991       0.54887526      -0.03875483       0.00000000
