10
Lattice="16.28999089631971 0.0 0.0 0.0 16.28999089631971 0.0 0.0 0.0 34.51007289658418" Properties=species:S:1:pos:R:3:initial_magmoms:R:1 pbc="T T T"
Si      -1.34490566      -1.35692442       1.36857708       0.00000000
Si       1.19350314      -1.34855136      -1.52177428       0.00000000
Si       1.36635633       1.35899325       1.36643745       0.00000000
Si      -1.36037953       1.27835775      -1.49043912       0.00000000
Si       2.20516101       0.53071191      -2.58487216       0.00000000
Si       0.47509785       2.32696134      -2.66967257       0.00000000
Si      -0.69084261      -2.26426113      -2.79035288       0.00000000
Si      -2.38062712      -0.45137961      -2.87507516       0.00000000
Si      -2.70169624       2.71218726      -0.02478515       0.00000000
Si       2.70915732      -2.71355562      -0.02548570       0.00000000
