10
Lattice="16.28999089631971 0.0 0.0 0.0 16.28999089631971 0.0 0.0 0.0 34.51007289658418" Properties=species:S:1:pos:R:3:initial_magmoms:R:1 pbc="T T T"
Si       1.00800891      -2.11194963       0.36559992       0.00000000
Si       1.14849387       1.49780034      -1.44473050       0.00000000
Si      -2.35107054      -0.32858559      -0.60654938       0.00000000
Si       1.78948908       0.96659973       1.54791567       0.00000000
Si      -1.59839109      -1.57040487      -2.48065445       0.00000000
Si       0.14141349      -2.97934326      -1.70486757       0.00000000
Si       0.31066659       2.04164199       3.05342332       0.00000000
Si      -2.02256640      -1.27817856       2.83752331       0.00000000
Si       2.45684151       0.11108151      -2.91096079       0.00000000
Si      -3.63749184      -1.05339285       1.16278305       0.00000000
