10
Lattice="16.28999089631971 0.0 0.0 0.0 16.28999089631971 0.0 0.0 0.0 34.51007289658418" Properties=species:S:1:pos:R:3:initial_magmoms:R:1 pbc="T T T"
Si       1.35708087      -1.35649274      -1.35738546       0.00000000
Si      -1.35688104      -1.35821785       1.35628113       0.00000000
Si      -1.35702765       1.35707103      -1.35773056       0.00000000
Si       1.35842479       1.35853713       1.35752350       0.00000000
Si      -0.00530898      -2.71188494       2.71390816       0.00000000
Si       2.71473019      -0.00014661      -2.71332149       0.00000000
Si       0.00040088       2.71386513      -2.71542660       0.00000000
Si      -2.71455480      -2.71519909      -0.00013804       0.00000000
Si       2.71497454      -2.71485726      -0.00017255       0.00000000
Si      -2.71479915       2.71505430      -0.00024157       0.00000000
