10
Lattice="16.28999089631971 0.0 0.0 0.0 16.28999089631971 0.0 0.0 0.0 34.51007289658418" Properties=species:S:1:pos:R:3:initial_magmoms:R:1 pbc="T T T"
Si       1.33564968       1.34170956       1.36040854       0.00000000
Si       1.35226548      -1.39266468      -1.30135487       0.00000000
Si      -1.22121243       1.33068123      -1.51908939       0.00000000
Si      -1.38126168      -1.37135736       1.35291985       0.00000000
Si      -2.03662467      -0.57451572      -2.73108870       0.00000000
Si      -0.31097610      -2.37646665      -2.59400975       0.00000000
Si       2.69123832       2.67259948       0.00599095       0.00000000
Si       2.69382843      -0.01412343       2.71489515       0.00000000
Si      -2.73489552       2.67476752      -0.02415706       0.00000000
Si      -0.01989009       2.69770075       2.71472260       0.00000000
