10
Lattice="16.28999089631971 0.0 0.0 0.0 16.28999089631971 0.0 0.0 0.0 34.51007289658418" Properties=species:S:1:pos:R:3:initial_magmoms:R:1 pbc="T T T"
Si      -1.34151408      -1.34964279       1.37626248       0.00000000
Si       1.35669636      -1.35757602      -1.35831723       0.00000000
Si      -1.35830907       1.35599493      -1.35890390       0.00000000
Si       1.35537687       1.33999652       1.38675354       0.00000000
Si      -2.71179630       2.71211300      -0.00200159       0.00000000
Si       2.71572219      -2.71379997       0.00269179       0.00000000
Si      -0.00027693       2.71418183      -2.71577170       0.00000000
Si      -2.71458189      -0.00069140      -2.71587523       0.00000000
Si       2.71538010      -0.00087066      -2.71521954       0.00000000
Si      -2.71474479      -2.71625976       0.00376160       0.00000000
