10
Lattice="16.28999089631971 0.0 0.0 0.0 16.28999089631971 0.0 0.0 0.0 34.51007289658418" Properties=species:S:1:pos:R:3:initial_magmoms:R:1 pbc="T T T"
Si       1.97016147      -1.04402610       0.64043829       0.00000000
Si       0.87495219       1.92544542      -0.98170859       0.00000000
Si      -1.18452735       0.56681055       1.95437554       0.00000000
Si      -0.20988036      -1.30803813      -1.96893880       0.00000000
Si       2.04859782      -1.94753466      -1.51254283       0.00000000
Si      -1.09133226       3.21773112      -0.56116861       0.00000000
Si      -2.93589783      -0.92967030       1.65827895       0.00000000
Si      -1.04892939       2.93193936       1.78248077       0.00000000
Si       2.56376907       2.48099958       0.56406746       0.00000000
Si      -2.13001524      -2.99690388       0.73713557       0.00000000
