10
Lattice="16.28999089631971 0.0 0.0 0.0 16.28999089631971 0.0 0.0 0.0 34.51007289658418" Properties=species:S:1:pos:R:3:initial_magmoms:R:1 pbc="T T T"
Si      -1.56144537       1.66419196      -0.74776468       0.00000000
Si       0.39928419      -1.06253154      -2.19266773       0.00000000
Si       2.02768146       1.15082334       0.84625648       0.00000000
Si      -1.06267815      -1.40152644       1.76011823       0.00000000
Si      -3.58410951       1.33447680       0.35221000       0.00000000
Si      -2.33186463       0.98406261      -2.91341100       0.00000000
Si       2.07008433       0.86503158       3.18990586       0.00000000
Si       2.67586056      -1.76829579      -2.32580766       0.00000000
Si      -2.96372115      -2.52646497       0.88615015       0.00000000
Si       3.11901372      -2.06690778       1.40742509       0.00000000
