10
Lattice="16.28999089631971 0.0 0.0 0.0 16.28999089631971 0.0 0.0 0.0 34.51007289658418" Properties=species:S:1:pos:R:3:initial_magmoms:R:1 pbc="T T T"
Si       1.56336759       0.82451509      -1.46298337       0.00000000
Si       1.36647036      -1.36747757       1.27166239       0.00000000
Si      -1.35244467       1.40395039       1.25309596       0.00000000
Si      -1.83964599      -0.68327753      -1.40176267       0.00000000
Si      -0.26513604      -0.28597747      -3.18129356       0.00000000
Si      -2.54598039      -2.70939582      -0.25341796       0.00000000
Si      -2.70252729       0.01775447       2.61721088       0.00000000
Si       0.01088172      -2.69836749       2.62607997       0.00000000
Si       0.46863072       2.71738051      -2.56559901       0.00000000
Si       2.73002481       0.02100270       2.62152464       0.00000000
