10
Lattice="16.28999089631971 0.0 0.0 0.0 16.28999089631971 0.0 0.0 0.0 34.51007289658418" Properties=species:S:1:pos:R:3:initial_magmoms:R:1 pbc="T T T"
Si       1.35858600       1.34434854       1.36942948       0.00000000
Si      -1.35943308       1.35505107      -1.36259648       0.00000000
Si       1.35747828      -1.36119892      -1.36256197       0.00000000
Si      -1.36019871      -1.37731298       1.38299194       0.00000000
Si      -0.06175539       2.73631275       2.66718149       0.00000000
Si       2.70905035      -2.71486601      -0.00493494       0.00000000
Si       2.71432193       2.71080261      -0.00006902       0.00000000
Si      -0.00043983       2.71207323      -2.71908467       0.00000000
Si      -2.71557558      -2.71730951      -0.00376160       0.00000000
Si       2.71435932      -0.00298107      -2.71884310       0.00000000
