10
Lattice="16.28999089631971 0.0 0.0 0.0 16.28999089631971 0.0 0.0 0.0 34.51007289658418" Properties=species:S:1:pos:R:3:initial_magmoms:R:1 pbc="T T T"
Si       0.58953510      -2.30557257       0.18697568       0.00000000
Si       1.76205672       1.60769268      -0.72450488       0.00000000
Si      -0.83440638       0.41368455       2.33457323       0.00000000
Si      -1.56812427       0.35207577      -2.18224568       0.00000000
Si       1.33315731      -2.72233919      -2.06394508       0.00000000
Si      -2.20683888      -1.45629342       2.71218265       0.00000000
Si      -1.75699053       2.60573211       2.14787363       0.00000000
Si       0.00786807       1.40115177      -3.66517885       0.00000000
Si       1.10980512       3.07239174      -2.42643909       0.00000000
Si       2.04115329       3.42774180       0.82130568       0.00000000
