10
Lattice="16.28999089631971 0.0 0.0 0.0 16.28999089631971 0.0 0.0 0.0 34.51007289658418" Properties=species:S:1:pos:R:3:initial_magmoms:R:1 pbc="T T T"
Si       1.35746199      -1.35651717       1.35728193       0.00000000
Si       1.35764118       1.35850455      -1.35683329       0.00000000
Si      -1.35742118      -1.35814617      -1.35766154       0.00000000
Si      -1.35772894       1.35816246       1.35773056       0.00000000
Si       2.71406061      -2.71441899       0.00020706       0.00000000
Si       0.00060273      -2.71347417       2.71528856       0.00000000
Si      -2.71465424       0.00185706       2.71477091       0.00000000
Si      -2.71484972      -2.71494027       0.00003451       0.00000000
Si       2.71583622       0.00190593       2.71414973       0.00000000
Si       2.71495656       2.71549413      -0.00027608       0.00000000
