10
Lattice="16.28999089631971 0.0 0.0 0.0 16.28999089631971 0.0 0.0 0.0 34.51007289658418" Properties=species:S:1:pos:R:3:initial_magmoms:R:1 pbc="T T T"
Si       1.31447268      -1.35244467       1.32073574       0.00000000
Si       1.37220444       1.33747416      -1.34834381       0.00000000
Si      -1.34169327      -1.37337732      -1.35124266       0.00000000
Si      -1.26814392       1.31209434       1.63346619       0.00000000
Si      -2.14715232      -0.85892283       2.55340172       0.00000000
Si       2.41640973       0.31879530       2.55947550       0.00000000
Si      -0.26151966      -2.40152067       2.80366891       0.00000000
Si       0.71897544       2.11491441       2.96762636       0.00000000
Si      -2.68133400       2.68206705       0.03723639       0.00000000
Si       0.01775610       2.69503389      -2.70907675       0.00000000
