10
Lattice="16.28999089631971 0.0 0.0 0.0 16.28999089631971 0.0 0.0 0.0 34.51007289658418" Properties=species:S:1:pos:R:3:initial_magmoms:R:1 pbc="T T T"
Si      -1.31447268       1.35244467      -1.32073574       0.00000000
Si       1.10193705       1.67123997       1.23873976       0.00000000
Si       1.42034139      -1.39196421      -1.29775202       0.00000000
Si      -1.57599234      -1.04907600       1.48293317       0.00000000
Si       1.75418865       0.20654091       2.94067398       0.00000000
Si      -3.46162500       0.49352184       1.23266598       0.00000000
Si      -2.58261660       2.66453901       0.31273046       0.00000000
Si      -2.65616595      -0.02093265      -2.67197840       0.00000000
Si       0.05773176       2.68991883      -2.66907955       0.00000000
Si       0.06175539      -2.73631275      -2.66718149       0.00000000
