10
Lattice="16.28999089631971 0.0 0.0 0.0 16.28999089631971 0.0 0.0 0.0 34.51007289658418" Properties=species:S:1:pos:R:3:initial_magmoms:R:1 pbc="T T T"
Si       0.65225160      -1.46469906       1.70193422       0.00000000
Si      -1.10193705      -1.67123997      -1.23873976       0.00000000
Si       1.77246735       1.10780145      -1.16892584       0.00000000
Si      -1.69743429       1.79611911       0.40815086       0.00000000
Si       0.93134817       0.35535006       3.24774478       0.00000000
Si       0.32505066       2.39651964      -2.53093565       0.00000000
Si      -2.41640973      -0.31879530      -2.55947550       0.00000000
Si       2.58081234      -2.54596410       0.28177490       0.00000000
Si      -2.67792939      -2.72031597       0.24419341       0.00000000
Si      -0.87084711       3.70348263      -0.88470072       0.00000000
