10
Lattice="16.28999089631971 0.0 0.0 0.0 16.28999089631971 0.0 0.0 0.0 34.51007289658418" Properties=species:S:1:pos:R:3:initial_magmoms:R:1 pbc="T T T"
Si       2.31645985       0.22517667      -0.15684837       0.00000000
Si      -0.25049133      -2.31454836       0.32349760       0.00000000
Si      -1.51583337       0.37188441      -1.79380008       0.00000000
Si      -0.68722623       0.94524354       2.09679869       0.00000000
Si      -2.31915843      -2.11071159       1.60451223       0.00000000
Si       2.76825648       0.17609490       2.19667090       0.00000000
Si      -2.88826587      -1.49809356      -1.41619065       0.00000000
Si       1.25455806       1.64188539       3.16816450       0.00000000
Si       2.68809828       2.25217395      -1.49894585       0.00000000
Si      -1.47176892       3.16086273       1.63488111       0.00000000
