10
Lattice="16.28999089631971 0.0 0.0 0.0 16.28999089631971 0.0 0.0 0.0 34.51007289658418" Properties=species:S:1:pos:R:3:initial_magmoms:R:1 pbc="T T T"
Si       1.35848826      -1.36045935       1.29072921       0.00000000
Si      -1.66324158      -0.98380197      -1.29265488       0.00000000
Si      -1.35226548       1.39266468       1.30135487       0.00000000
Si       1.87181874       0.77949279      -1.41630941       0.00000000
Si      -0.18441909      -2.05884423      -2.79816252       0.00000000
Si       2.59388928       2.62734894      -0.07303371       0.00000000
Si       0.75272832       1.30640913      -3.42317480       0.00000000
Si      -2.57347791       2.72334591      -0.21773452       0.00000000
Si      -3.38889015       0.81814896      -1.42973383       0.00000000
Si       2.69834076       0.01865205       2.65434374       0.00000000
