10
Lattice="16.28999089631971 0.0 0.0 0.0 16.28999089631971 0.0 0.0 0.0 34.51007289658418" Properties=species:S:1:pos:R:3:initial_magmoms:R:1 pbc="T T T"
Si      -1.37220444      -1.33747416       1.34834381       0.00000000
Si      -1.35444834       1.35755973      -1.36073293       0.00000000
Si       1.36155078      -1.35534429      -1.35993920       0.00000000
Si       1.36925595       1.37784078       1.37688366       0.00000000
Si      -0.05773176      -2.68991883       2.66907955       0.00000000
Si      -2.70655092       2.71601541       0.00151844       0.00000000
Si      -2.71389771      -2.71085148      -0.00289885       0.00000000
Si      -2.71114470       0.00009774      -2.71694505       0.00000000
Si       0.00358380      -2.71415835      -2.71718662       0.00000000
Si       2.71405835       2.71743264      -0.00231218       0.00000000
