10
Lattice="16.28999089631971 0.0 0.0 0.0 16.28999089631971 0.0 0.0 0.0 34.51007289658418" Properties=species:S:1:pos:R:3:initial_magmoms:R:1 pbc="T T T"
Si      -1.35490446      -1.33665966      -1.39106731       0.00000000
Si       1.35581670       1.37997477      -1.39175751       0.00000000
Si      -1.40688585       1.28814804       1.43551630       0.00000000
Si       1.52500464      -1.36787130       1.63053284       0.00000000
Si       0.47232855       1.76774193       3.03781988       0.00000000
Si       2.72090241      -2.67483429      -0.01570209       0.00000000
Si      -2.70189198      -2.70808218      -0.00700555       0.00000000
Si      -2.70141957       2.74413195      -0.01818682       0.00000000
Si      -0.00280188      -2.69511534      -2.75331868       0.00000000
Si       2.70021411       2.75041989      -0.02453668       0.00000000
