10
Lattice="16.28999089631971 0.0 0.0 0.0 16.28999089631971 0.0 0.0 0.0 34.51007289658418" Properties=species:S:1:pos:R:3:initial_magmoms:R:1 pbc="T T T"
Si      -0.07843635       0.90350856       2.15298112       0.00000000
Si      -0.18656937      -2.32090146      -0.26510653       0.00000000
Si       2.05895030       0.89617806      -0.80463731       0.00000000
Si      -2.25847818       0.63949653      -0.45639597       0.00000000
Si      -2.04859782       1.94753466       1.51254283       0.00000000
Si       2.06039294      -2.80266192      -0.33543810       0.00000000
Si       3.07847347      -1.02713337      -1.63488111       0.00000000
Si      -0.80252685      -2.54014857      -2.57821448       0.00000000
Si      -0.34538058      -0.82253097       3.60119714       0.00000000
Si       3.27940736       1.71779679       1.05214369       0.00000000
