10
Lattice="16.28999089631971 0.0 0.0 0.0 16.28999089631971 0.0 0.0 0.0 34.51007289658418" Properties=species:S:1:pos:R:3:initial_magmoms:R:1 pbc="T T T"
Si       0.26694423       1.72603953      -1.44821602       0.00000000
Si      -0.33870168       0.96865227       2.03785545       0.00000000
Si       2.16775917      -0.82008747       0.07826889       0.00000000
Si      -1.83734910      -1.33037172      -0.51119800       0.00000000
Si      -2.34747045      -1.96706637       1.72809287       0.00000000
Si      -1.19226510      -0.73609623       3.41346224       0.00000000
Si       0.34538058       0.82253097      -3.60119714       0.00000000
Si      -1.19286783      -2.76397317      -2.29467956       0.00000000
Si      -1.84682988       2.77206930       1.87431213       0.00000000
Si      -1.70321724       2.77006563      -2.08865431       0.00000000
