10
Lattice="16.28999089631971 0.0 0.0 0.0 16.28999089631971 0.0 0.0 0.0 34.51007289658418" Properties=species:S:1:pos:R:3:initial_magmoms:R:1 pbc="T T T"
Si       0.33870168      -0.96865227      -2.03785545       0.00000000
Si       1.53269352       1.69124409       0.52879814       0.00000000
Si      -0.85356342      -1.70474850       1.37560678       0.00000000
Si      -1.50812820       1.80341703      -0.16354333       0.00000000
Si       1.92415851       1.15737192       2.73730600       0.00000000
Si       0.01803303       3.53631465       0.34413464       0.00000000
Si      -2.00876877      -2.93571864      -0.30976259       0.00000000
Si      -2.16191106      -0.31802967       2.84183707       0.00000000
Si      -3.20088726       1.09849986       1.23791152       0.00000000
Si       0.60564591       0.75738726      -3.48607147       0.00000000
