10
Lattice="16.28999089631971 0.0 0.0 0.0 16.28999089631971 0.0 0.0 0.0 34.51007289658418" Properties=species:S:1:pos:R:3:initial_magmoms:R:1 pbc="T T T"
Si       1.39328370       1.48252425       1.34465123       0.00000000
Si       1.47429387      -1.19096190      -1.55761301       0.00000000
Si      -1.23044886       1.49238947      -1.54077209       0.00000000
Si      -0.75359169      -2.17363986       1.50474355       0.00000000
Si      -2.63280609      -2.65323375      -0.09756003       0.00000000
Si       2.86150842      -2.49131115      -0.20868253       0.00000000
Si      -2.63267577       2.82405788      -0.11799001       0.00000000
Si       0.12989646      -2.56140702      -2.92483384       0.00000000
Si      -2.58582573       0.15239295      -2.92752563       0.00000000
Si       1.31056308      -3.48451245       1.37070635       0.00000000
