10
Lattice="16.28999089631971 0.0 0.0 0.0 16.28999089631971 0.0 0.0 0.0 34.51007289658418" Properties=species:S:1:pos:R:3:initial_magmoms:R:1 pbc="T T T"
Si       1.39527108      -1.54921158       0.91089388       0.00000000
Si      -2.21619748      -0.00856854       0.73423672       0.00000000
Si       0.47662911       2.16697725       0.72892217       0.00000000
Si      -0.04292415      -0.51541560      -2.27921904       0.00000000
Si      -2.80972268       1.43221680      -1.02639916       0.00000000
Si      -1.15490236       3.08736225      -0.63270803       0.00000000
Si       0.42510384      -3.44136024      -0.01639229       0.00000000
Si      -2.30222009      -0.12786021      -2.71287286       0.00000000
Si       1.29412647      -1.05406074       3.18645485       0.00000000
Si       3.37527171      -1.33022511      -0.25965393       0.00000000
