10
Lattice="16.28999089631971 0.0 0.0 0.0 16.28999089631971 0.0 0.0 0.0 34.51007289658418" Properties=species:S:1:pos:R:3:initial_magmoms:R:1 pbc="T T T"
Si       2.21619748       0.00856854      -0.73423672       0.00000000
Si      -0.59352519       1.44078534      -1.76063588       0.00000000
Si      -0.19620653       0.52455429       2.28891637       0.00000000
Si      -1.05899565      -2.09650671      -0.23076899       0.00000000
Si      -0.08602260      -0.11929167      -3.44710958       0.00000000
Si       2.69282659       2.17554579      -0.00531455       0.00000000
Si      -2.42219172      -0.09189189       2.47961914       0.00000000
Si       1.23095874      -1.21204116       3.01000475       0.00000000
Si      -1.22782521      -2.02207770      -2.60030094       0.00000000
Si       1.06129513       3.09593079      -1.36694475       0.00000000
