10
Lattice="16.28999089631971 0.0 0.0 0.0 16.28999089631971 0.0 0.0 0.0 34.51007289658418" Properties=species:S:1:pos:R:3:initial_magmoms:R:1 pbc="T T T"
Si       1.41562706      -0.32943267      -1.93932914       0.00000000
Si      -1.02931364      -2.18911536       0.66473340       0.00000000
Si      -0.26224587       2.53182438      -0.23608354       0.00000000
Si       0.75591301       0.14517648       2.66528344       0.00000000
Si       3.29718722      -1.34395758      -0.80253219       0.00000000
Si      -3.12508730      -1.36783872       1.72195007       0.00000000
Si      -3.93018797       0.15573240       0.00569417       0.00000000
Si      -0.18819446      -1.43666397      -3.75193722       0.00000000
Si      -0.26361016       2.06848791       3.49552724       0.00000000
Si      -1.96066181      -2.54446542      -2.58301138       0.00000000
