10
Lattice="16.28999089631971 0.0 0.0 0.0 16.28999089631971 0.0 0.0 0.0 34.51007289658418" Properties=species:S:1:pos:R:3:initial_magmoms:R:1 pbc="T T T"
Si       1.34136747       1.35441576      -1.38782336       0.00000000
Si      -1.37020077      -1.36303317      -1.38333705       0.00000000
Si      -1.37808513       1.43734833       1.34472025       0.00000000
Si       1.42807914      -1.34394129       1.48983519       0.00000000
Si       2.69131977       2.69863954      -0.02077508       0.00000000
Si       2.69048898      -2.72826549      -0.01590915       0.00000000
Si       2.70086571      -0.00384444      -2.74434606       0.00000000
Si      -0.01355328       2.70939257      -2.74600255       0.00000000
Si      -2.72697695      -2.73194703      -0.01263069       0.00000000
Si      -0.16044021      -2.65753431       2.79566257       0.00000000
