10
Lattice="16.28999089631971 0.0 0.0 0.0 16.28999089631971 0.0 0.0 0.0 34.51007289658418" Properties=species:S:1:pos:R:3:initial_magmoms:R:1 pbc="T T T"
Si       1.35664749      -1.35817875      -1.36173373       0.00000000
Si      -1.35928158       1.35907470      -1.36111255       0.00000000
Si      -1.35677618      -1.36891386       1.37070635       0.00000000
Si       1.37020077       1.36303317       1.38333705       0.00000000
Si      -2.69873188       0.07293033       2.71542660       0.00000000
Si       2.71363707      -2.71270854      -0.00345101       0.00000000
Si       2.71156824       2.71744893      -0.00448631       0.00000000
Si       2.71353933       0.00079821      -2.71894663       0.00000000
Si      -2.72045574      -2.71238274      -0.00386513       0.00000000
Si      -0.00087966      -2.71381626      -2.71915369       0.00000000
