10
Lattice="10.86 0.0 0.0 0.0 10.86 0.0 0.0 0.0 10.86" Properties=species:S:1:pos:R:3:initial_magmoms:R:1 pbc="T T T"
Si      -1.27728804      -1.39685664       1.38529074       0.00000000
Si       1.43771196       1.31814336       1.38529074       0.00000000
Si       1.43771196      -1.39685664      -1.32970926       0.00000000
Si      -1.64221662       1.09102818      -1.43234712       0.00000000
Si      -0.24829218       2.62835892      -2.23342416       0.00000000
Si       0.11218380       2.37820968       2.95003212       0.00000000
Si      -2.63478804      -2.75435664       0.02779074       0.00000000
Si       0.08021196      -2.75435664      -2.68720926       0.00000000
Si       2.79521196       2.67564336       0.02779074       0.00000000
Si       2.79521196      -0.03935664      -2.68720926       0.00000000
