10
Lattice="10.86 0.0 0.0 0.0 10.86 0.0 0.0 0.0 10.86" Properties=species:S:1:pos:R:3:initial_magmoms:R:1 pbc="T T T"
Si      -1.34648796       1.60291428       1.02218664       0.00000000
Si      -1.47615636      -1.23030768      -1.60694334       0.00000000
Si       1.09525272       1.30978116      -1.97430456       0.00000000
Si       0.07453218      -2.70472644       0.14722902       0.00000000
Si      -2.77362228       0.13892112       2.34528216       0.00000000
Si       2.29144914      -2.80319406      -0.47235570       0.00000000
Si      -0.05862228       2.85392112       2.34528216       0.00000000
Si      -2.77362228      -2.57607888      -0.36971784       0.00000000
Si       2.65637772       2.85392112      -0.36971784       0.00000000
Si       1.41847890       1.37195466       3.45328452       0.00000000
