10
Lattice="10.86 0.0 0.0 0.0 10.86 0.0 0.0 0.0 10.86" Properties=species:S:1:pos:R:3:initial_magmoms:R:1 pbc="T T T"
Si       1.06944936       1.48965534       1.31067168       0.00000000
Si      -1.64555064      -1.22534466       1.31067168       0.00000000
Si      -1.64555064       1.48965534      -1.40432832       0.00000000
Si       2.33570364      -2.62343934       0.01708278       0.00000000
Si       2.42694936       0.13215534       2.66817168       0.00000000
Si       0.66644562      -3.06050004      -1.85897136       0.00000000
Si      -0.28805064      -2.58284466       2.66817168       0.00000000
Si       2.54655054       2.72268888      -0.29632596       0.00000000
Si      -0.28805064       2.84715534       2.66817168       0.00000000
Si      -3.00305064      -2.58284466      -0.04682832       0.00000000
