10
Lattice="10.86 0.0 0.0 0.0 10.86 0.0 0.0 0.0 10.86" Properties=species:S:1:pos:R:3:initial_magmoms:R:1 pbc="T T T"
Si       1.39392444       1.53733074      -0.80107704       0.00000000
Si      -2.21691696       0.09846762       0.61958472       0.00000000
Si       1.64221662      -1.09102818       1.43234712       0.00000000
Si      -2.35007142      -2.48788482       0.10263786       0.00000000
Si      -2.35007142       0.22711518      -2.61236214       0.00000000
Si       0.36492858      -2.48788482      -2.61236214       0.00000000
Si      -2.29144914       2.80319406       0.47235570       0.00000000
Si       0.36492858      -2.48788482       2.81763786       0.00000000
Si       0.36492858       2.94211518      -2.61236214       0.00000000
Si       3.07992858      -2.48788482       0.10263786       0.00000000
