10
Lattice="10.86 0.0 0.0 0.0 10.86 0.0 0.0 0.0 10.86" Properties=species:S:1:pos:R:3:initial_magmoms:R:1 pbc="T T T"
Si      -1.38947184      -1.06006632       1.15025862       0.00000000
Si       1.32552816      -1.06006632      -1.56474138       0.00000000
Si       1.32552816       1.65493368       1.15025862       0.00000000
Si      -0.03197184      -2.41756632       2.50775862       0.00000000
Si       2.68302816      -2.41756632      -0.20724138       0.00000000
Si       2.68302816       0.29743368       2.50775862       0.00000000
Si      -2.74697184       0.29743368       2.50775862       0.00000000
Si      -2.83821756      -2.45816100      -0.14333028       0.00000000
Si      -0.11218380      -2.37820968      -2.95003212       0.00000000
Si      -0.03197184       3.01243368       2.50775862       0.00000000
