10
Lattice="10.86 0.0 0.0 0.0 10.86 0.0 0.0 0.0 10.86" Properties=species:S:1:pos:R:3:initial_magmoms:R:1 pbc="T T T"
Si      -1.26060708      -1.35844482       1.22487768       0.00000000
Si       1.45439292       1.35655518       1.22487768       0.00000000
Si       1.45439292      -1.35844482      -1.49012232       0.00000000
Si      -0.91526994       1.92256752      -2.00896968       0.00000000
Si      -2.51253702       2.45494644       0.03389406       0.00000000
Si      -2.61810708      -0.00094482       2.58237768       0.00000000
Si      -2.49699636      -0.02057970      -2.78743620       0.00000000
Si       0.09689292       2.71405518       2.58237768       0.00000000
Si       0.09689292      -2.71594482       2.58237768       0.00000000
Si      -2.61810708      -2.71594482      -0.13262232       0.00000000
