10
Lattice="10.86 0.0 0.0 0.0 10.86 0.0 0.0 0.0 10.86" Properties=species:S:1:pos:R:3:initial_magmoms:R:1 pbc="T T T"
Si      -1.18213272       1.39160040      -1.30163616       0.00000000
Si      -1.18213272      -1.32339960       1.41336384       0.00000000
Si       1.39858338       0.80392236       1.74611424       0.00000000
Si       1.53286728      -1.32339960      -1.30163616       0.00000000
Si       2.77105932       2.25950988       0.21969780       0.00000000
Si      -2.53963272       0.03410040      -2.65913616       0.00000000
Si      -2.53963272      -2.68089960       0.05586384       0.00000000
Si      -2.53963272       2.74910040       0.05586384       0.00000000
Si      -2.53963272       0.03410040       2.77086384       0.00000000
Si       0.17536728      -2.68089960      -2.65913616       0.00000000
