10
Lattice="10.86 0.0 0.0 0.0 10.86 0.0 0.0 0.0 10.86" Properties=species:S:1:pos:R:3:initial_magmoms:R:1 pbc="T T T"
Si      -0.93116898       1.82116770       1.13175318       0.00000000
Si      -1.39858338      -0.80392236      -1.74611424       0.00000000
Si       0.47962104      -1.56130962       1.86340224       0.00000000
Si       1.37247594       1.45558752      -1.52641644       0.00000000
Si      -2.58071610      -2.12732196      -0.33275040       0.00000000
Si      -2.58071610       0.58767804       2.38224960       0.00000000
Si       0.13428390      -2.12732196      -3.04775040       0.00000000
Si      -1.10210538      -3.50445684       1.08493572       0.00000000
Si      -2.58071610       0.58767804      -3.04775040       0.00000000
Si       0.13428390       3.30267804       2.38224960       0.00000000
