10
Lattice="10.86 0.0 0.0 0.0 10.86 0.0 0.0 0.0 10.86" Properties=species:S:1:pos:R:3:initial_magmoms:R:1 pbc="T T T"
Si      -1.13745468       1.30483986      -1.29084132       0.00000000
Si       1.57754532      -1.41016014      -1.29084132       0.00000000
Si       1.57754532       1.30483986       1.42415868       0.00000000
Si      -2.33751726      -0.06597450       2.79107430       0.00000000
Si      -2.61426264      -0.54225066      -2.48450736       0.00000000
Si      -2.49495468       2.66233986       0.06665868       0.00000000
Si       0.22004532       2.66233986      -2.64834132       0.00000000
Si       0.25389594      -2.95049910      -2.45975742       0.00000000
Si       0.22004532       2.66233986       2.78165868       0.00000000
Si       2.93504532      -0.05266014      -2.64834132       0.00000000
