10
Lattice="16.28999089631971 0.0 0.0 0.0 16.28999089631971 0.0 0.0 0.0 34.642051614445585" Properties=species:S:1:pos:R:3:initial_magmoms:R:1 pbc="T T T"
Si      -1.54973679       1.07893557       1.41585608       0.00000000
Si       2.08334765       1.10149722       0.37229834       0.00000000
Si      -1.07994948       0.52483122      -2.09979449       0.00000000
Si       0.32646789      -2.33543214       0.60679052       0.00000000
Si      -2.60151693      -1.34571690      -1.70813124       0.00000000
Si       2.07424154       0.53416539       2.67838636       0.00000000
Si      -0.02613242       1.48147776       3.17120446       0.00000000
Si       3.52906886      -0.07315839      -1.11142156       0.00000000
Si      -1.38629922      -2.78736561       2.25218496       0.00000000
Si       0.09618756      -3.61996380      -1.40390457       0.00000000
