10
Lattice="16.28999089631971 0.0 0.0 0.0 16.28999089631971 0.0 0.0 0.0 34.642051614445585" Properties=species:S:1:pos:R:3:initial_magmoms:R:1 pbc="T T T"
Si       2.05806557      -1.00558170       0.39301430       0.00000000
Si      -1.39677139      -0.19699497       1.87378962       0.00000000
Si      -0.84381223      -1.48302531      -1.63583323       0.00000000
Si       0.57606653       2.28024162      -0.39609744       0.00000000
Si       0.23772323       0.99401580       3.32892981       0.00000000
Si       2.52291701       0.03878649       2.51529149       0.00000000
Si       1.59538070      -3.28341240       0.61039329       0.00000000
Si      -1.46194915       3.19357861      -1.17699900       0.00000000
Si      -0.15184724      -0.55157940      -3.66267152       0.00000000
Si       3.22012901      -0.81011799      -1.73948231       0.00000000
