10
Lattice="16.28999089631971 0.0 0.0 0.0 16.28999089631971 0.0 0.0 0.0 34.642051614445585" Properties=species:S:1:pos:R:3:initial_magmoms:R:1 pbc="T T T"
Si       1.39677139       0.19699497      -1.87378962       0.00000000
Si      -2.09794253       0.96971112      -0.53075117       0.00000000
Si      -0.33557630      -2.28255480       0.74906550       0.00000000
Si       1.63449462       1.19101077       1.45514019       0.00000000
Si       0.55295916      -1.28603034      -3.50962285       0.00000000
Si      -1.66656704       3.15238506      -1.29540560       0.00000000
Si      -0.76783145      -1.80454104       3.27405677       0.00000000
Si       1.78248927      -3.31607385       0.72246039       0.00000000
Si       3.45483696      -0.80858673      -1.48077532       0.00000000
Si      -3.76786301       0.12616605       0.97420432       0.00000000
