10
Lattice="16.28999089631971 0.0 0.0 0.0 16.28999089631971 0.0 0.0 0.0 34.642051614445585" Properties=species:S:1:pos:R:3:initial_magmoms:R:1 pbc="T T T"
Si      -0.10857285      -1.58850958      -1.75777332       0.00000000
Si      -0.72769059       2.25277668      -0.29127053       0.00000000
Si       2.03056479       0.08475687       1.24981664       0.00000000
Si      -1.57480317      -0.98331001       1.55865070       0.00000000
Si      -0.18163350      -2.69507366       2.39491029       0.00000000
Si       1.73348406       2.23021503       2.29839748       0.00000000
Si       1.46023560      -1.20945594       3.16638921       0.00000000
Si       0.38322225       2.77430103      -2.41746228       0.00000000
Si      -3.29660730      -0.88009494      -1.88432081       0.00000000
Si       2.06522991      -2.03400687      -2.61748560       0.00000000
