10
Lattice="16.28999089631971 0.0 0.0 0.0 16.28999089631971 0.0 0.0 0.0 34.642051614445585" Properties=species:S:1:pos:R:3:initial_magmoms:R:1 pbc="T T T"
Si      -0.85550193      -1.93852629       1.05931989       0.00000000
Si       0.88477506       1.07051364       1.96590289       0.00000000
Si       2.09551302      -0.33925554      -1.22054409       0.00000000
Si      -2.02782807       0.22861386      -1.41398541       0.00000000
Si      -2.22840684      -0.72089766       2.68094987       0.00000000
Si       2.96945523      -0.08464284       2.08780833       0.00000000
Si      -1.68443487      -3.38983497      -0.65525477       0.00000000
Si       1.81869705      -2.48153715      -2.35503727       0.00000000
Si      -0.56726667       0.54234297       3.85334148       0.00000000
Si       1.19878110       3.40348599       1.70317742       0.00000000
