10
Lattice="16.28999089631971 0.0 0.0 0.0 16.28999089631971 0.0 0.0 0.0 34.642051614445585" Properties=species:S:1:pos:R:3:initial_magmoms:R:1 pbc="T T T"
Si      -0.97256187       0.86833845       1.94255413       0.00000000
Si      -1.46266281       0.32886252      -1.82206901       0.00000000
Si       0.44891982      -2.24024967       0.68913472       0.00000000
Si       1.87509303       1.42286634      -0.40046234       0.00000000
Si       2.51362845      -2.32922565      -0.33142069       0.00000000
Si       3.50378352      -0.22177206       0.03065823       0.00000000
Si       2.09790765       2.64588696       1.62218426       0.00000000
Si      -3.16956159      -0.06222780       2.04772746       0.00000000
Si      -0.14014287       3.12768000       2.11209243       0.00000000
Si      -3.18373389       1.77935670      -1.16116758       0.00000000
