10
Lattice="16.28999089631971 0.0 0.0 0.0 16.28999089631971 0.0 0.0 0.0 34.642051614445585" Properties=species:S:1:pos:R:3:initial_magmoms:R:1 pbc="T T T"
Si      -1.34904006      -1.36106208       1.35443569       0.00000000
Si       1.35648459      -1.35477414      -1.36164124       0.00000000
Si      -1.35923760       1.35997065      -1.36223016       0.00000000
Si       1.38618126       1.34969166       1.36940107       0.00000000
Si      -0.02085120       2.71062342       2.61596135       0.00000000
Si       2.71119357      -2.71037907       0.00211317       0.00000000
Si      -2.71155195      -2.71370223      -0.00408776       0.00000000
Si       2.71298547       2.71544526      -0.00453811       0.00000000
Si      -2.71145421       2.71735119      -0.00183603       0.00000000
Si      -0.00117288      -2.71194291      -2.71850188       0.00000000
