10
Lattice="16.28999089631971 0.0 0.0 0.0 16.28999089631971 0.0 0.0 0.0 34.642051614445585" Properties=species:S:1:pos:R:3:initial_magmoms:R:1 pbc="T T T"
Si      -1.08818829      -1.64454066      -1.20401982       0.00000000
Si       1.53821583      -0.88081659       1.52910101       0.00000000
Si       1.63668888       1.17918018      -1.21132930       0.00000000
Si      -1.41848433       1.40644017       1.32363889       0.00000000
Si       0.29147697       1.77482875       2.84986461       0.00000000
Si      -0.03186324      -0.56193984       3.37070815       0.00000000
Si       2.46527973       1.32933146       1.99015234       0.00000000
Si      -2.45268756      -0.27544761      -2.46367480       0.00000000
Si       0.26733519       2.45518875      -2.50216214       0.00000000
Si      -2.06161353      -3.22833591       0.17965378       0.00000000
