10
Lattice="16.28999089631971 0.0 0.0 0.0 16.28999089631971 0.0 0.0 0.0 34.642051614445585" Properties=species:S:1:pos:R:3:initial_magmoms:R:1 pbc="T T T"
Si       0.98328069       2.16505503      -0.15883390       0.00000000
Si       1.81783368      -1.28620953       0.88590168       0.00000000
Si      -0.46485144      -1.04436819      -2.12227719       0.00000000
Si      -2.28519378       0.95522931       0.81363832       0.00000000
Si      -1.24307361      -0.02182860       2.71195453       0.00000000
Si       0.65412495      -1.80613746       2.87582992       0.00000000
Si      -2.52291701      -0.03878649      -2.51529149       0.00000000
Si      -0.97252929       3.34104220      -1.02779560       0.00000000
Si       1.69306857       2.37034161       2.35465621       0.00000000
Si       2.90558214       1.77267780      -1.75922829       0.00000000
