10
Lattice="16.28999089631971 0.0 0.0 0.0 16.28999089631971 0.0 0.0 0.0 34.642051614445585" Properties=species:S:1:pos:R:3:initial_magmoms:R:1 pbc="T T T"
Si      -1.36482507      -1.32309009      -1.36489413       0.00000000
Si      -1.35609363       1.35842310       1.35679135       0.00000000
Si       1.35884664      -1.35738054       1.35738027       0.00000000
Si       1.33626870       1.36958175      -1.37533179       0.00000000
Si       0.00110772      -2.71433754       2.71399841       0.00000000
Si      -2.71407690       0.00042354       2.71441411       0.00000000
Si       2.74690125       0.00078192      -2.68311847       0.00000000
Si       0.00089595       2.71634121       2.71462197       0.00000000
Si      -2.71686249      -2.71430170      -0.00263280       0.00000000
Si       2.71834488      -2.71292357      -0.00360278       0.00000000
