10
Lattice="16.28999089631971 0.0 0.0 0.0 16.28999089631971 0.0 0.0 0.0 34.642051614445585" Properties=species:S:1:pos:R:3:initial_magmoms:R:1 pbc="T T T"
Si       0.14020803       2.36338578      -0.21582010       0.00000000
Si       0.37794429      -1.31792616      -1.97421698       0.00000000
Si      -2.35293575      -0.59618142       0.03623561       0.00000000
Si       1.10851821      -0.53012547       2.09993306       0.00000000
Si       0.86737734      -3.48691427      -1.01116741       0.00000000
Si      -1.24877511       2.91595887      -2.04897457       0.00000000
Si      -0.98477937       3.29672133       1.63694178       0.00000000
Si      -2.50835684      -2.95618051       0.11705556       0.00000000
Si      -1.99323137       1.61448561       2.93006101       0.00000000
Si       0.50398002      -2.76993042       2.78155045       0.00000000
