10
Lattice="16.28999089631971 0.0 0.0 0.0 16.28999089631971 0.0 0.0 0.0 34.642051614445585" Properties=species:S:1:pos:R:3:initial_magmoms:R:1 pbc="T T T"
Si       1.89400572       1.18700343       0.69682526       0.00000000
Si       1.11651660      -0.64612656      -1.98990984       0.00000000
Si      -0.17708859      -2.32614684       0.42803743       0.00000000
Si      -2.08468017       1.15515648      -0.12190545       0.00000000
Si      -0.87394221      -0.25461270      -3.30835242       0.00000000
Si       1.47116619      -2.90339928      -1.19369648       0.00000000
Si       0.85186926       2.71396287       2.15761211       0.00000000
Si      -2.96945523       0.08464284      -2.08780833       0.00000000
Si       0.36569421      -2.70646947       2.63362880       0.00000000
Si       3.29027049      -0.33239745       1.89467879       0.00000000
