10
Lattice="16.28999089631971 0.0 0.0 0.0 16.28999089631971 0.0 0.0 0.0 34.642051614445585" Properties=species:S:1:pos:R:3:initial_magmoms:R:1 pbc="T T T"
Si       0.35243415      -0.40897674      -2.28620347       0.00000000
Si      -0.65730150      -1.88714763       1.27474650       0.00000000
Si      -1.66034196       1.82402388       0.08487519       0.00000000
Si       1.97944677       0.79926885       1.28361487       0.00000000
Si      -1.97364753      -0.56019681       2.71066380       0.00000000
Si       0.76237200       2.16630936       2.73478854       0.00000000
Si       2.65732254      -0.89785593      -2.35798185       0.00000000
Si      -3.44026881       0.75450393       1.28043472       0.00000000
Si      -0.47177469       3.56522940       1.30259872       0.00000000
Si      -0.45157509       1.53591894      -3.54471527       0.00000000
