10
Lattice="16.28999089631971 0.0 0.0 0.0 16.28999089631971 0.0 0.0 0.0 34.642051614445585" Properties=species:S:1:pos:R:3:initial_magmoms:R:1 pbc="T T T"
Si      -1.35773892      -1.35666378      -1.35706849       0.00000000
Si       1.35739683      -1.35705474       1.35703385       0.00000000
Si       1.35834165       1.35666378      -1.35710313       0.00000000
Si      -1.35852084       1.35852084       1.35731098       0.00000000
Si       2.71404432      -2.71389771      -0.00010393       0.00000000
Si       2.71601541      -0.00032580      -2.71243952       0.00000000
Si       0.00122175      -2.71407690       2.71486446       0.00000000
Si       2.71549413       0.00127062       2.71392912       0.00000000
Si      -0.00006516      -2.71192662      -2.71749726       0.00000000
Si      -0.00114030       2.71591767       2.71399841       0.00000000
