10
Lattice="16.28999089631971 0.0 0.0 0.0 16.28999089631971 0.0 0.0 0.0 34.642051614445585" Properties=species:S:1:pos:R:3:initial_magmoms:R:1 pbc="T T T"
Si      -0.49879980       2.31301710       0.17269072       0.00000000
Si       2.39842557      -0.20399967       0.22389170       0.00000000
Si      -1.53577233      -0.88511715       1.66174550       0.00000000
Si       0.14344974      -0.39905613      -2.40959853       0.00000000
Si       1.03638609       2.82178638       1.95305068       0.00000000
Si      -2.91134880       2.26056330       0.38861475       0.00000000
Si       0.44538489      -2.70902700      -2.54300515       0.00000000
Si       2.97041634       1.44345690       1.81753090       0.00000000
Si      -3.63718233       0.08659764       1.14308442       0.00000000
Si      -0.71723241      -0.14362893       3.80317976       0.00000000
