10
Lattice="16.28999089631971 0.0 0.0 0.0 16.28999089631971 0.0 0.0 0.0 34.642051614445585" Properties=species:S:1:pos:R:3:initial_magmoms:R:1 pbc="T T T"
Si      -0.42665139       1.96877682       1.18344243       0.00000000
Si      -2.01228741      -0.83820195      -0.89109799       0.00000000
Si       1.21178052       0.68875749      -1.96309688       0.00000000
Si       1.09841841      -1.52290323       1.53145667       0.00000000
Si       3.01578399      -0.82689669      -1.56228812       0.00000000
Si       1.65708396       2.73434166       1.79508283       0.00000000
Si      -0.59847831      -3.11435478       1.98564887       0.00000000
Si      -1.37280717      -2.91387375      -1.95436708       0.00000000
Si      -3.50914293      -0.96295077       0.98064775       0.00000000
Si      -2.73957075       0.84199752      -2.45536071       0.00000000
