10
Lattice="16.28999089631971 0.0 0.0 0.0 16.28999089631971 0.0 0.0 0.0 34.642051614445585" Properties=species:S:1:pos:R:3:initial_magmoms:R:1 pbc="T T T"
Si      -1.35151614      -1.35309627       1.38868284       0.00000000
Si       1.36028016       1.36027431       1.38556506       0.00000000
Si       1.32551730      -1.28236509      -1.55872345       0.00000000
Si      -1.43746218       1.24066499      -1.53425922       0.00000000
Si       2.11089078       0.82621318      -2.92603702       0.00000000
Si       0.17241336       2.47950809      -2.86243418       0.00000000
Si      -2.71749780      -2.69298135       0.01398847       0.00000000
Si       2.71181259      -2.70578529      -0.00757969       0.00000000
Si      -2.71847520       2.71854755      -0.01387069       0.00000000
Si      -0.32136912      -2.30050638      -3.06855450       0.00000000
