10
Lattice="16.28999089631971 0.0 0.0 0.0 16.28999089631971 0.0 0.0 0.0 34.642051614445585" Properties=species:S:1:pos:R:3:initial_magmoms:R:1 pbc="T T T"
Si      -1.66941549       0.35654153      -1.54597170       0.00000000
Si       1.88687070      -0.82767861      -1.05450464       0.00000000
Si       0.34109631       1.89490886       1.29602916       0.00000000
Si      -0.54214749      -1.65521061       1.64962078       0.00000000
Si       1.82768913       1.01970743       3.00571929       0.00000000
Si       0.99303840      -1.14644133       3.42998073       0.00000000
Si      -2.59647939      -1.85360652      -2.00702302       0.00000000
Si      -1.70408061       2.47530527       2.32133053       0.00000000
Si      -2.95469649      -1.70766441       1.86554481       0.00000000
Si       3.94017633       0.03038085      -0.28056613       0.00000000
