10
Lattice="16.28999089631971 0.0 0.0 0.0 16.28999089631971 0.0 0.0 0.0 34.642051614445585" Properties=species:S:1:pos:R:3:initial_magmoms:R:1 pbc="T T T"
Si       1.35496491      -1.35253494       1.35800382       0.00000000
Si      -1.35824391      -1.35516978      -1.35748419       0.00000000
Si       1.35633322       1.35975725      -1.35779597       0.00000000
Si      -1.35868374       1.35858437       1.36382369       0.00000000
Si       2.71458745      -2.71154448       0.00135104       0.00000000
Si       2.71010281      -0.01545921       2.71808617       0.00000000
Si      -0.00055386      -2.71335267      -2.71489910       0.00000000
Si       2.71427305       0.00251192      -2.71458732       0.00000000
Si      -2.71622718      -2.71314090       0.00045035       0.00000000
Si      -0.00004887       2.71655135      -2.71462197       0.00000000
