10
Lattice="16.28999089631971 0.0 0.0 0.0 16.28999089631971 0.0 0.0 0.0 34.642051614445585" Properties=species:S:1:pos:R:3:initial_magmoms:R:1 pbc="T T T"
Si      -1.35811359      -1.35191103      -1.37102924       0.00000000
Si       1.35684297       1.36230338      -1.36572901       0.00000000
Si       1.44086679      -1.27295778       1.39126021       0.00000000
Si      -1.32519150       1.35656930       1.44093694       0.00000000
Si      -2.70083313       2.71077329      -0.01475752       0.00000000
Si      -2.71441899      -2.70313395      -0.00924943       0.00000000
Si       2.71785618      -2.70772773      -0.00128176       0.00000000
Si       0.16361676      -2.76604593       2.65722005       0.00000000
Si      -0.00070047      -2.70942189      -2.72910235       0.00000000
Si       2.71552671       0.00371901      -2.72955270       0.00000000
