10
Lattice="16.28999089631971 0.0 0.0 0.0 16.28999089631971 0.0 0.0 0.0 34.642051614445585" Properties=species:S:1:pos:R:3:initial_magmoms:R:1 pbc="T T T"
Si       0.20538432      -0.53914199      -2.23960989       0.00000000
Si      -0.44546634      -2.09327219       0.99360388       0.00000000
Si       1.83617689       1.28870190       0.87713724       0.00000000
Si      -1.75161483       1.91054007       0.01458431       0.00000000
Si       0.39014550       3.23833797       0.40108590       0.00000000
Si      -0.42912747      -1.50731207       3.26546554       0.00000000
Si       1.56148514       0.92753631      -3.38203611       0.00000000
Si      -2.49877197      -2.95133165       0.21966537       0.00000000
Si      -1.35962856      -1.94026460      -3.32224389       0.00000000
Si       2.70810891       0.57888144       3.00644677       0.00000000
