10
Lattice="16.28999089631971 0.0 0.0 0.0 16.28999089631971 0.0 0.0 0.0 34.642051614445585" Properties=species:S:1:pos:R:3:initial_magmoms:R:1 pbc="T T T"
Si      -1.27725003      -1.49308815       1.26595984       0.00000000
Si       1.56501288       1.40112261       1.08263400       0.00000000
Si       1.27698939      -1.43476995      -1.39254197       0.00000000
Si      -1.44086679       1.27295778      -1.39126021       0.00000000
Si      -0.08402382       2.63526116      -2.75698922       0.00000000
Si       2.62962483      -0.07585815      -2.76280909       0.00000000
Si      -2.76605829       2.62952708       0.04967673       0.00000000
Si      -1.13914341      -1.01106705       3.54190926       0.00000000
Si       2.56736916      -2.88845697       0.06394926       0.00000000
Si      -0.08172693      -2.79539220      -2.75924095       0.00000000
