10
Lattice="16.28999089631971 0.0 0.0 0.0 16.28999089631971 0.0 0.0 0.0 34.642051614445585" Properties=species:S:1:pos:R:3:initial_magmoms:R:1 pbc="T T T"
Si       1.22021874       1.73191859       0.97146760       0.00000000
Si       0.96045840      -1.95401061       0.86369611       0.00000000
Si      -0.01633887      -0.58596012      -2.27186166       0.00000000
Si      -2.12882607       0.40336646       1.01442376       0.00000000
Si      -1.02944655      -3.14111178       1.30316543       0.00000000
Si       0.42912747       1.50731207      -3.26546554       0.00000000
Si      -1.38533418       1.59224813       2.99875623       0.00000000
Si       2.22035536       0.77595460       2.89683926       0.00000000
Si      -2.96347680      -1.76278230       1.43868521       0.00000000
Si      -0.45333441       3.36020183       1.63905495       0.00000000
