10
Lattice="16.28999089631971 0.0 0.0 0.0 16.28999089631971 0.0 0.0 0.0 34.642051614445585" Properties=species:S:1:pos:R:3:initial_magmoms:R:1 pbc="T T T"
Si       0.48689181       1.58884455       1.58438976       0.00000000
Si      -1.95786252       0.50572408      -1.18617915       0.00000000
Si      -0.43137549      -2.18267394       0.76465443       0.00000000
Si       1.60138928       0.23818852      -1.75538302       0.00000000
Si      -1.46509002      -1.20442686      -2.81508397       0.00000000
Si       0.55739493       3.40960880       0.04409936       0.00000000
Si      -1.26877923      -3.05031192      -1.26388132       0.00000000
Si       1.75681038       2.59818761      -1.83620297       0.00000000
Si       2.53281874       0.44747755       2.64249717       0.00000000
Si       1.66656704      -3.15238506       1.29540560       0.00000000
