10
Lattice="16.28999089631971 0.0 0.0 0.0 16.28999089631971 0.0 0.0 0.0 34.642051614445585" Properties=species:S:1:pos:R:3:initial_magmoms:R:1 pbc="T T T"
Si      -2.00236680      -0.27274999       1.16522070       0.00000000
Si       1.95786252      -0.50572408       1.18617915       0.00000000
Si      -0.70348365       2.28092254      -0.14961910       0.00000000
Si       0.49277250      -1.71015093      -1.62890482       0.00000000
Si      -3.09034332      -0.38795873      -0.99159464       0.00000000
Si       3.55925180      -0.26753556      -0.56920387       0.00000000
Si       0.68908329      -3.55603599      -0.07770217       0.00000000
Si       1.52648703      -2.68839801       1.95083358       0.00000000
Si       2.47772529      -1.05501600      -2.63442557       0.00000000
Si       0.35722341       3.20805160      -2.06494457       0.00000000
