10
Lattice="16.28999089631971 0.0 0.0 0.0 16.28999089631971 0.0 0.0 0.0 34.642051614445585" Properties=species:S:1:pos:R:3:initial_magmoms:R:1 pbc="T T T"
Si       0.71026029      -0.44939223       2.19064994       0.00000000
Si       1.88178822      -1.04119001      -1.10764558       0.00000000
Si      -2.20752306      -1.13601899      -0.51363799       0.00000000
Si      -0.68903442       2.45263869      -0.37939996       0.00000000
Si      -0.23390811       1.73806155      -2.59351329       0.00000000
Si       1.95229134       0.77957424      -2.64793598       0.00000000
Si      -1.32800967      -1.26097632       3.28978570       0.00000000
Si       2.51915076      -2.15044127       1.99119160       0.00000000
Si      -3.57184314       0.80988993      -1.25671041       0.00000000
Si       1.52375031       1.43811378       3.37770034       0.00000000
