10
Lattice="16.28999089631971 0.0 0.0 0.0 16.28999089631971 0.0 0.0 0.0 34.642051614445585" Properties=species:S:1:pos:R:3:initial_magmoms:R:1 pbc="T T T"
Si       0.69689013      -1.43731557      -1.72884719       0.00000000
Si       2.00814065       1.35218403      -0.02591227       0.00000000
Si       0.49815213      -1.25501418       2.01498554       0.00000000
Si      -2.29853529       0.89417439      -0.36339532       0.00000000
Si       1.70534213       0.24492015      -3.02196642       0.00000000
Si       1.39150876       0.47545623       3.31467602       0.00000000
Si      -3.50355546      -1.16349696      -0.47383425       0.00000000
Si       2.77582319      -2.42940915      -0.71927332       0.00000000
Si       3.95490968      -0.35012097      -0.36024290       0.00000000
Si      -0.86222970      -2.83656141      -2.74237026       0.00000000
