10
Lattice="16.28999089631971 0.0 0.0 0.0 16.28999089631971 0.0 0.0 0.0 34.642051614445585" Properties=species:S:1:pos:R:3:initial_magmoms:R:1 pbc="T T T"
Si      -2.05987050      -1.01530683       0.65494299       0.00000000
Si      -0.08065179       1.79962146       1.59918192       0.00000000
Si       1.95308955      -1.47030282       0.10888003       0.00000000
Si       0.06496452       0.36530325      -2.47129606       0.00000000
Si       1.36940256       2.35838475      -2.34041832       0.00000000
Si      -1.28238138       0.81782316       3.34167809       0.00000000
Si       1.40784696      -2.95570647      -1.75153775       0.00000000
Si      -2.96590401       1.29503871      -1.94452873       0.00000000
Si       3.19495674       1.93572441      -0.84322265       0.00000000
Si      -1.70522091      -3.27257955       1.45115635       0.00000000
