10
Lattice="16.28999089631971 0.0 0.0 0.0 16.28999089631971 0.0 0.0 0.0 34.642051614445585" Properties=species:S:1:pos:R:3:initial_magmoms:R:1 pbc="T T T"
Si      -1.25395533      -1.33620354      -1.47388155       0.00000000
Si       0.45302490      -1.58281785       1.70438989       0.00000000
Si      -1.54984689       1.36997271       1.17048629       0.00000000
Si       1.47924833       0.80931978      -1.68509426       0.00000000
Si      -2.91449277      -1.91301615       0.04687072       0.00000000
Si      -1.63859481      -2.79753057       1.75541766       0.00000000
Si       2.32691966      -2.73284298       0.92937748       0.00000000
Si      -3.67696251       0.27539874       0.69852272       0.00000000
Si      -2.65022010       0.18319734      -2.67173508       0.00000000
Si      -2.20252203       3.15185436      -0.16008101       0.00000000
