10
Lattice="16.28999089631971 0.0 0.0 0.0 16.28999089631971 0.0 0.0 0.0 34.642051614445585" Properties=species:S:1:pos:R:3:initial_magmoms:R:1 pbc="T T T"
Si      -1.35638209       1.35679410      -1.35682599       0.00000000
Si       1.35793983      -1.35724533      -1.35679135       0.00000000
Si      -1.35633322      -1.35975725       1.35779597       0.00000000
Si       1.35776716       1.35752715       1.35876595       0.00000000
Si       2.71428433       0.00074934      -2.71379056       0.00000000
Si      -0.00136830      -2.71229219       2.71579980       0.00000000
Si       0.00312472       2.71381626      -2.71431019       0.00000000
Si       0.00086650      -2.71428625      -2.71389448       0.00000000
Si      -0.00373128       2.71428867       2.71420626       0.00000000
Si      -2.71447939      -0.00068418      -2.71413698       0.00000000
