10
Lattice="16.28999089631971 0.0 0.0 0.0 16.28999089631971 0.0 0.0 0.0 34.642051614445585" Properties=species:S:1:pos:R:3:initial_magmoms:R:1 pbc="T T T"
Si       2.11806557      -1.03351905      -0.02660511       0.00000000
Si       0.33557630       2.28255480      -0.74906550       0.00000000
Si      -0.43225515       0.47801376       2.52499127       0.00000000
Si      -1.07763237      -1.19252574      -2.13169984       0.00000000
Si      -1.76236623       3.25226592      -1.27981667       0.00000000
Si       2.09677454      -3.25669680       0.71608625       0.00000000
Si       3.32772839      -0.80386263      -2.01246183       0.00000000
Si       1.73234769       2.47954977      -2.62285512       0.00000000
Si       1.97007092       3.47356557       0.70607469       0.00000000
Si      -2.25217395       2.30742963       2.54608829       0.00000000
