10
Lattice="16.28999089631971 0.0 0.0 0.0 16.28999089631971 0.0 0.0 0.0 34.642051614445585" Properties=species:S:1:pos:R:3:initial_magmoms:R:1 pbc="T T T"
Si       1.35263544       1.35891180      -1.37026712       0.00000000
Si      -1.35871632      -1.36062225      -1.36669898       0.00000000
Si      -1.27698939       1.43476995       1.39254197       0.00000000
Si       1.29037977      -1.45368702       1.45649123       0.00000000
Si      -2.55423942      -0.05831820       2.65850181       0.00000000
Si       0.28802349       2.83589256       2.47517597       0.00000000
Si       2.70777334       2.69598753      -0.01018477       0.00000000
Si      -2.71785618       2.70772773       0.00128176       0.00000000
Si       2.70361450      -2.72277576       0.00259816       0.00000000
Si       2.71225798      -0.00009774      -2.72691990       0.00000000
