10
Lattice="16.28999089631971 0.0 0.0 0.0 16.28999089631971 0.0 0.0 0.0 34.642051614445585" Properties=species:S:1:pos:R:3:initial_magmoms:R:1 pbc="T T T"
Si       0.92519055       1.80776646       1.27207559       0.00000000
Si      -1.66545702      -1.03086378       1.42444874       0.00000000
Si       1.81991880      -1.82941587      -0.02109702       0.00000000
Si      -1.18011276       0.10129122      -2.32094947       0.00000000
Si      -0.32487147      -2.32251417       2.80987177       0.00000000
Si       2.37292579       0.42125940       2.77370891       0.00000000
Si      -2.36695329      -2.90111868      -0.05081992       0.00000000
Si      -2.38752756      -1.99759383      -2.29282011       0.00000000
Si       0.48980772       0.94483629      -3.82590496       0.00000000
Si       3.65156707      -0.98106525       1.30906640       0.00000000
