10
Lattice="16.28999089631971 0.0 0.0 0.0 16.28999089631971 0.0 0.0 0.0 34.642051614445585" Properties=species:S:1:pos:R:3:initial_magmoms:R:1 pbc="T T T"
Si      -1.00845200      -1.68223572       1.29311923       0.00000000
Si       1.12498740      -0.93333555      -1.85276188       0.00000000
Si      -1.29184750       1.75863582      -0.94946988       0.00000000
Si       0.30279852       1.10726388       2.99605415       0.00000000
Si      -1.70534213      -0.24492015       3.02196642       0.00000000
Si       2.24956755      -0.59504112       2.66172352       0.00000000
Si       1.07048106      -2.67432930       2.30269310       0.00000000
Si      -2.13789050       0.76926267      -2.91090394       0.00000000
Si      -0.26399574      -0.38076246      -3.68591635       0.00000000
Si       0.29843280       3.28608396      -1.76438996       0.00000000
