10
Lattice="16.28999089631971 0.0 0.0 0.0 16.28999089631971 0.0 0.0 0.0 34.642051614445585" Properties=species:S:1:pos:R:3:initial_magmoms:R:1 pbc="T T T"
Si       1.36149082      -1.42490259      -1.27296100       0.00000000
Si      -1.35361302      -1.36019871       1.37330869       0.00000000
Si       1.36403694       1.35210258       1.37687682       0.00000000
Si      -1.38505272       1.36412460      -1.47333421       0.00000000
Si      -2.69569725       2.69343747       0.02632451       0.00000000
Si       2.68986538       2.71551042       0.01150463       0.00000000
Si      -2.73142122      -2.70958086       0.00341571       0.00000000
Si       2.71980640      -2.72433960       0.05182800       0.00000000
Si       0.00548435       2.70888039       2.73609312       0.00000000
Si      -2.71055373      -0.00478926       2.73588527       0.00000000
