10
Lattice="16.28999089631971 0.0 0.0 0.0 16.28999089631971 0.0 0.0 0.0 34.642051614445585" Properties=species:S:1:pos:R:3:initial_magmoms:R:1 pbc="T T T"
Si      -1.35711000      -1.35716877       1.35727634       0.00000000
Si       1.35807203       1.35778779       1.35692992       0.00000000
Si      -1.35639324       1.35664749      -1.36035949       0.00000000
Si       1.35855259      -1.35677781      -1.35921630       0.00000000
Si       2.68438103       0.00663003      -2.72458849       0.00000000
Si      -2.70118161      -0.01544292      -2.70976861       0.00000000
Si      -2.71458828       0.00050499       2.71424090       0.00000000
Si       0.00030164      -2.71464705       2.71462197       0.00000000
Si      -2.71603809      -2.71366965      -0.00020785       0.00000000
Si      -2.71553310       2.71422351      -0.00027714       0.00000000
