10
Lattice="16.28999089631971 0.0 0.0 0.0 16.28999089631971 0.0 0.0 0.0 34.642051614445585" Properties=species:S:1:pos:R:3:initial_magmoms:R:1 pbc="T T T"
Si       1.35090859       1.35151614       1.36957428       0.00000000
Si      -1.35557296       1.35726651      -1.36184909       0.00000000
Si       1.35969216      -1.35671265      -1.36153732       0.00000000
Si      -1.34658088      -1.36803420       1.39091379       0.00000000
Si       2.67686083      -0.11877039       2.70485290       0.00000000
Si      -2.71142224       2.71366965       0.00027714       0.00000000
Si      -2.71251367      -2.71585251      -0.00301386       0.00000000
Si      -2.71344220       0.00074934      -2.71902151       0.00000000
Si       0.00144772      -2.71440270      -2.71864045       0.00000000
Si       0.00098645       2.71549413      -2.71864045       0.00000000
