10
Lattice="16.28999089631971 0.0 0.0 0.0 16.28999089631971 0.0 0.0 0.0 34.642051614445585" Properties=species:S:1:pos:R:3:initial_magmoms:R:1 pbc="T T T"
Si      -1.88533129      -0.48123918       1.33074051       0.00000000
Si       2.34924606      -0.40146705       0.55389207       0.00000000
Si      -0.61115193      -1.59075108      -1.75829295       0.00000000
Si       0.26396316       2.41598619      -0.41854550       0.00000000
Si       1.64545290       1.35420399      -2.06096073       0.00000000
Si      -1.21385098      -2.73320136       1.25809609       0.00000000
Si      -0.11565900       0.11088603      -3.35556956       0.00000000
Si       2.27084229       1.02125268       2.55935620       0.00000000
Si      -3.71088548      -0.05857884      -0.16645515       0.00000000
Si       3.34893078      -0.32032656      -1.75857009       0.00000000
