10
Lattice="16.28999089631971 0.0 0.0 0.0 16.28999089631971 0.0 0.0 0.0 34.642051614445585" Properties=species:S:1:pos:R:3:initial_magmoms:R:1 pbc="T T T"
Si      -1.13461709       1.32437700      -1.51545204       0.00000000
Si       1.62025716       1.38924378       0.94829205       0.00000000
Si       1.27603317      -1.78041555      -0.90052063       0.00000000
Si      -1.47924833      -0.80931978       1.68509426       0.00000000
Si       2.22248217      -2.25315135       1.23873117       0.00000000
Si      -2.73320366      -2.14552332       0.21121271       0.00000000
Si       2.53710723      -0.17231562       2.42702349       0.00000000
Si       0.57815002       1.77631047      -3.16084648       0.00000000
Si      -2.15994227       3.03634197      -0.08005783       0.00000000
Si       3.01907946       2.37848661      -0.67032407       0.00000000
