10
Lattice="10.86 0.0 0.0 0.0 10.86 0.0 0.0 0.0 10.86" Properties=species:S:1:pos:R:3:initial_magmoms:R:1 pbc="T T T"
Si      -1.43217336       0.92561952      -1.44045954       0.00000000
Si       1.72325394       1.68989202       0.74115156       0.00000000
Si      -1.43217336      -1.78938048       1.27454046       0.00000000
Si       1.28282664      -1.78938048      -1.44045954       0.00000000
Si       0.13478346       2.20088760       2.66269824       0.00000000
Si       0.03090756       2.48902512      -2.40822672       0.00000000
Si      -2.78967336       2.28311952      -0.08295954       0.00000000
Si       2.64918840      -0.30939054       2.58876336       0.00000000
Si      -2.78967336      -0.43188048       2.63204046       0.00000000
Si       2.66177514      -0.42990396      -2.79349608       0.00000000
