10
Lattice="10.86 0.0 0.0 0.0 10.86 0.0 0.0 0.0 10.86" Properties=species:S:1:pos:R:3:initial_magmoms:R:1 pbc="T T T"
Si       1.06840680      -1.26575472      -1.43143488       0.00000000
Si       1.06840680       1.44924528       1.28356512       0.00000000
Si      -1.64659320      -1.26575472       1.28356512       0.00000000
Si       2.42590680      -2.62325472      -0.07393488       0.00000000
Si       2.42590680       0.09174528       2.64106512       0.00000000
Si       2.42590680       0.09174528      -2.78893488       0.00000000
Si       2.42590680       2.80674528      -0.07393488       0.00000000
Si      -0.28909320      -2.62325472       2.64106512       0.00000000
Si      -0.28909320      -2.62325472      -2.78893488       0.00000000
Si      -0.15593874       2.79618936       2.68233312       0.00000000
