10
Lattice="16.290000149 0.0 0.0 0.0 16.290000149 0.0 0.0 0.0 29.1751946751" Properties=species:S:1:pos:R:3:initial_magmoms:R:1 pbc="T T T"
H        0.45887301       1.28819692      -0.65711291       0.00000000
Si      -0.81265924       0.98233588       1.94251364       0.00000000
Si      -1.88586074      -0.71322508      -1.25631306       0.00000000
Si       2.00665109      -1.36866952      -0.07921065       0.00000000
H        0.95607640      -0.25630686      -2.48035835       0.00000000
H       -0.63643402      -2.67196727      -1.02970932       0.00000000
Si       3.17325619       0.68263246      -0.66951237       0.00000000
Si      -2.31223520       2.29330622       0.64264201       0.00000000
Si       0.79568506      -2.96370489      -1.49035647       0.00000000
Si       2.00997425       0.84220930      -2.68414709       0.00000000
