10
Lattice="16.290000149 0.0 0.0 0.0 16.290000149 0.0 0.0 0.0 29.1751946751" Properties=species:S:1:pos:R:3:initial_magmoms:R:1 pbc="T T T"
Si      -0.43885260       0.24809670      -2.28318947       0.00000000
Si       0.80998768       1.85943836       1.18070846       0.00000000
Si      -1.87398533      -0.80241283       1.19570743       0.00000000
Si       1.63300735      -1.73548775       0.08393412       0.00000000
Si       2.18450531       0.59505742       2.59859374       0.00000000
Si      -0.67109914      -2.19963872       2.63714293       0.00000000
Si      -2.15531363       1.88006150      -2.18008433       0.00000000
Si      -0.48798324      -2.04669191      -2.94844226       0.00000000
Si       1.71644474      -2.42756840      -2.14583265       0.00000000
Si       0.64422064      -3.52284448       1.23623469       0.00000000
