10
Lattice="16.290000149 0.0 0.0 0.0 16.290000149 0.0 0.0 0.0 29.1751946751" Properties=species:S:1:pos:R:3:initial_magmoms:R:1 pbc="T T T"
Si       1.35550720       1.36787131       1.33727422       0.00000000
Si      -1.32766433       1.36081774      -1.37464765       0.00000000
Si       1.38425905      -1.35481325      -1.33447340       0.00000000
Si      -1.34735894      -1.35331620       1.37663156       0.00000000
Si       2.71075376       0.00198738       2.67440257       0.00000000
Si      -2.69793353      -0.00811242      -2.69960994       0.00000000
Si       0.05991462      -2.69104286       2.70865425       0.00000000
Si       0.02751381      -2.71733492      -2.68487647       0.00000000
Si      -2.69356781       2.71217099      -0.02570335       0.00000000
Si      -0.02397888       2.71261082       2.69383325       0.00000000
