10
Lattice="16.290000149 0.0 0.0 0.0 16.290000149 0.0 0.0 0.0 29.1751946751" Properties=species:S:1:pos:R:3:initial_magmoms:R:1 pbc="T T T"
Si       0.43885260      -0.24809670       2.28318947       0.00000000
Si      -1.71646103       1.63196480       0.10310514       0.00000000
Si      -0.04913064      -2.29478861      -0.66525279       0.00000000
Si       1.86794174       0.89549389      -1.27790270       0.00000000
H       -0.92256787       0.15959313      -2.53701658       0.00000000
Si       2.15529734      -2.67566510       0.13735682       0.00000000
Si      -0.31921884       3.36670320      -0.81559257       0.00000000
Si       2.07185996      -1.98358445       2.36712358       0.00000000
Si       3.46372644       1.71207902       0.28081125       0.00000000
Si      -3.77403465       0.62338573      -0.61836825       0.00000000
