10
Lattice="16.290000149 0.0 0.0 0.0 16.290000149 0.0 0.0 0.0 29.1751946751" Properties=species:S:1:pos:R:3:initial_magmoms:R:1 pbc="T T T"
Si       0.36162171      -0.88881499      -2.12943911       0.00000000
Si      -1.81879481       1.45784098       0.16475232       0.00000000
Si       1.62854389       1.68063932       0.06934944       0.00000000
Si       0.21804165      -1.51599628       1.83561572       0.00000000
H       -0.91377127      -1.44317998       2.83632490       0.00000000
Si       1.06521940       2.71974584       2.07636943       0.00000000
Si       2.27297630      -0.82469755       2.74077614       0.00000000
Si       1.41535666       0.87161275      -3.31666531       0.00000000
Si      -3.64397529       0.16014699       0.80176352       0.00000000
H       -1.82785205       0.31623777       3.29128289       0.00000000
