10
Lattice="16.290000149 0.0 0.0 0.0 16.290000149 0.0 0.0 0.0 29.1751946751" Properties=species:S:1:pos:R:3:initial_magmoms:R:1 pbc="T T T"
Si       1.61890021      -1.72136432      -0.29519462       0.00000000
Si      -1.85621294      -0.86740993      -1.30538574       0.00000000
Si      -0.72558919       0.29831877       2.30343997       0.00000000
H       -1.30650688       0.44685099      -2.02114079       0.00000000
Si       0.64449757       1.86854447      -1.46917528       0.00000000
H        2.11634795       0.75523699       1.07939468       0.00000000
H       -1.23549877       2.40499046       0.21038233       0.00000000
H       -2.76146454      -0.31324041       1.15527936       0.00000000
H        0.52383753      -1.66042343       2.53004371       0.00000000
Si       1.95595661      -1.95216104       2.06939656       0.00000000
