10
Lattice="16.290000149 0.0 0.0 0.0 16.290000149 0.0 0.0 0.0 29.1751946751" Properties=species:S:1:pos:R:3:initial_magmoms:R:1 pbc="T T T"
Si       1.35573526       1.34014573      -1.31569333       0.00000000
Si       1.43321050      -1.31975065       1.28289166       0.00000000
Si      -1.33602436       1.44132292       1.28922268       0.00000000
Si      -1.30443805      -1.29513646      -1.47596726       0.00000000
Si      -0.05067819       2.70366761      -2.57020336       0.00000000
Si       0.05321943      -2.63753021       2.64654026       0.00000000
Si      -2.67157631      -2.64530054      -0.12533664       0.00000000
Si      -2.69974172       0.07975584       2.61891135       0.00000000
Si       2.77949757      -2.59900436      -0.17776446       0.00000000
Si       2.76851811       0.08454510       2.62139124       0.00000000
