10
Lattice="16.290000149 0.0 0.0 0.0 16.290000149 0.0 0.0 0.0 29.1751946751" Properties=species:S:1:pos:R:3:initial_magmoms:R:1 pbc="T T T"
Si      -0.93131234       0.81562728       1.99447466       0.00000000
Si       1.36194501       1.38416457      -1.33345227       0.00000000
Si      -1.86803622      -0.89861994      -1.12102768       0.00000000
Si       1.84118052      -1.17470123       0.93162232       0.00000000
H        2.64281143       1.42202253      -0.51310415       0.00000000
H       -2.91448954       0.21479180      -1.10150947       0.00000000
Si       0.52532807      -2.60128171       2.27846600       0.00000000
Si       1.96286683      -0.13369692      -3.09169538       0.00000000
Si       0.40279306       2.79380344       2.47989155       0.00000000
Si      -0.64605522      -1.00986419       3.56477116       0.00000000
