10
Lattice="16.290000149 0.0 0.0 0.0 16.290000149 0.0 0.0 0.0 29.1751946751" Properties=species:S:1:pos:R:3:initial_magmoms:R:1 pbc="T T T"
Si       1.35579391      -1.40869405       1.31337974       0.00000000
Si      -1.46095205       1.27956322       1.34547245       0.00000000
Si      -1.10774607      -1.70743637      -1.24802730       0.00000000
Si       1.19304051       1.69156991      -1.19040629       0.00000000
Si       2.36448701      -2.64802097      -0.52964648       0.00000000
Si      -2.77595286      -2.49083876       0.20046276       0.00000000
Si       2.52906488       0.05864400       2.76369034       0.00000000
Si      -2.86370709       2.45154728      -0.11360821       0.00000000
Si      -0.13165741      -2.60884352       2.74906481       0.00000000
Si       0.30691338      -3.65660004      -1.25111987       0.00000000
