10
Lattice="16.290000149 0.0 0.0 0.0 16.290000149 0.0 0.0 0.0 29.1751946751" Properties=species:S:1:pos:R:3:initial_magmoms:R:1 pbc="T T T"
Si      -0.92882323       1.04293468      -1.83392356       0.00000000
Si       1.06987834       1.75982501       1.06579904       0.00000000
Si       1.33307587      -1.54551376      -1.15843028       0.00000000
Si      -1.93862405      -1.02850174       0.90206784       0.00000000
H        0.51189696      -1.28264203       2.39630461       0.00000000
Si       0.69103810      -2.67016071       1.78578449       0.00000000
Si      -1.69925879      -1.00409932      -2.71227197       0.00000000
Si      -0.47591235      -2.87431188      -1.76177331       0.00000000
Si      -2.22597965       2.54265725      -0.51319167       0.00000000
Si      -1.20932074      -3.21872158       0.50015036       0.00000000
