10
Lattice="16.290000149 0.0 0.0 0.0 16.290000149 0.0 0.0 0.0 29.1751946751" Properties=species:S:1:pos:R:3:initial_magmoms:R:1 pbc="T T T"
Si       0.90681544       0.06796188      -1.21832695       0.00000000
H       -1.26982180      -1.75992275      -0.42942969       0.00000000
H        1.89933257       0.41795253       1.23778681       0.00000000
Si      -1.80411752      -2.02162160       0.95653793       0.00000000
Si       1.18221418       2.93807420       0.24854348       0.00000000
Si       0.01663209       1.48804264      -2.80989217       0.00000000
Si       1.22438899      -2.05640075      -2.14548547       0.00000000
Si       2.79696045       1.40690215      -0.83018016       0.00000000
Si      -2.65572614      -0.14740821       2.07316016       0.00000000
H       -2.87643936      -0.91546543      -1.59497872       0.00000000
