10
Lattice="16.290000149 0.0 0.0 0.0 16.290000149 0.0 0.0 0.0 29.1751946751" Properties=species:S:1:pos:R:3:initial_magmoms:R:1 pbc="T T T"
Si      -1.37862271       1.34703640       1.32230735       0.00000000
Si      -1.37026594      -1.36168111      -1.32761723       0.00000000
Si       1.35192340       1.39131262      -1.32738383       0.00000000
Si       1.35635428      -1.33027399       1.38672618       0.00000000
Si       0.03937293       2.65812077       2.63799193       0.00000000
Si       0.01500309      -2.67620267      -2.68601430       0.00000000
Si       2.70335810      -2.67802715       0.02021841       0.00000000
Si      -2.72611523       0.00853596      -2.66672949       0.00000000
Si      -2.72893340      -0.01124010       2.67451927       0.00000000
Si       2.69604389       0.06045219      -2.71437259       0.00000000
