10
Lattice="16.290000149 0.0 0.0 0.0 16.290000149 0.0 0.0 0.0 29.1751946751" Properties=species:S:1:pos:R:3:initial_magmoms:R:1 pbc="T T T"
Si       1.39144294       1.43454628      -1.18034085       0.00000000
Si       1.70007329      -1.59941737       0.02027676       0.00000000
Si      -0.95689090       1.26781813       1.75655095       0.00000000
Si      -1.59578470      -0.81658513      -1.55871395       0.00000000
Si      -2.06726618       1.21116151      -2.62436711       0.00000000
Si      -0.17229933       2.71564076      -2.31058789       0.00000000
Si       0.63019495      -3.35924238      -1.04552228       0.00000000
Si      -2.40868829       2.68350059       0.53801976       0.00000000
Si      -0.29862828      -2.31630770      -2.87944584       0.00000000
Si       2.35408421      -2.02385333       2.15129425       0.00000000
