10
Lattice="16.290000149 0.0 0.0 0.0 16.290000149 0.0 0.0 0.0 29.1751946751" Properties=species:S:1:pos:R:3:initial_magmoms:R:1 pbc="T T T"
Si      -1.39012345      -1.34490241      -1.27564454       0.00000000
Si       1.32989867      -1.40895469       1.31104572       0.00000000
Si      -1.42517953       1.36029646       1.27025880       0.00000000
Si       1.29520162       1.31432608      -1.46962749       0.00000000
Si       2.62638948       2.67457367      -0.09090991       0.00000000
Si       2.66497072      -0.03209130       2.65616807       0.00000000
Si      -0.06890670       2.71003700       2.62495062       0.00000000
Si      -0.13229109      -2.74589130      -2.64048057       0.00000000
Si      -2.74994751      -0.02661786       2.65330890       0.00000000
Si       2.68029635      -2.73546570      -0.09572381       0.00000000
