10
Lattice="16.290000149 0.0 0.0 0.0 16.290000149 0.0 0.0 0.0 29.1751946751" Properties=species:S:1:pos:R:3:initial_magmoms:R:1 pbc="T T T"
Si      -1.33366231      -1.34023859       1.32854500       0.00000000
Si       1.49793067      -1.23558348      -1.28016378       0.00000000
Si      -1.24970365       1.37039626      -1.41301595       0.00000000
Si       1.41972238       1.42936606       1.23553448       0.00000000
Si       0.65764360       2.16086852      -2.53480218       0.00000000
H       -0.55434871      -0.45716256      -3.33531409       0.00000000
Si       2.36320661       0.49275621      -2.66268640       0.00000000
Si       0.10049301      -2.68653053       2.59034300       0.00000000
Si      -2.66375711       0.07938117       2.61505439       0.00000000
Si      -2.69418683      -2.62287096      -0.08183642       0.00000000
