10
Lattice="16.290000149 0.0 0.0 0.0 16.290000149 0.0 0.0 0.0 29.1751946751" Properties=species:S:1:pos:R:3:initial_magmoms:R:1 pbc="T T T"
Si      -1.34829091      -1.35312886       1.35781356       0.00000000
Si      -1.36814842       1.35664750      -1.34118370       0.00000000
Si       1.33073482      -1.34941474      -1.39121916       0.00000000
Si       1.31432264       1.36629118       1.39442843       0.00000000
Si       0.03028309       2.69130350      -2.67586133       0.00000000
Si       2.68276737      -2.70842429      -0.03206354       0.00000000
Si      -2.69239511       0.01177767       2.70982126       0.00000000
Si       2.69006529       2.71423982       0.04364609       0.00000000
Si      -2.71845911      -2.70158249       0.00189639       0.00000000
Si       2.70413985       0.01739772       2.72411710       0.00000000
