10
Lattice="16.290000149 0.0 0.0 0.0 16.290000149 0.0 0.0 0.0 29.1751946751" Properties=species:S:1:pos:R:3:initial_magmoms:R:1 pbc="T T T"
Si       1.45308430      -1.21432177      -1.27653147       0.00000000
Si      -1.20145267       1.55338183      -1.23230187       0.00000000
Si       1.45850887       1.04236453       1.47034229       0.00000000
Si      -1.10532538      -1.43251003       1.56729146       0.00000000
H        2.09414468      -2.06685893      -0.20524749       0.00000000
Si      -1.98413831       0.34700958       2.85225456       0.00000000
Si       2.47357136      -0.80998768       2.36730447       0.00000000
Si      -0.12755070       1.81596035       3.03608746       0.00000000
Si       0.01555695      -2.54179388      -2.48981111       0.00000000
Si      -2.58644477       0.20199600      -2.52712619       0.00000000
