10
Lattice="16.290000149 0.0 0.0 0.0 16.290000149 0.0 0.0 0.0 29.1751946751" Properties=species:S:1:pos:R:3:initial_magmoms:R:1 pbc="T T T"
Si       1.32017419       1.34099281       1.39437591       0.00000000
Si      -1.35838565       1.33964074      -1.38108661       0.00000000
Si       1.41908707      -1.38201103      -1.28400615       0.00000000
Si      -1.37434985      -1.36091548       1.36172887       0.00000000
Si       0.03119535      -2.65649177      -2.66177117       0.00000000
Si       2.67587687       2.65544921      -0.00525153       0.00000000
Si       0.12906567       2.53979021      -2.81677169       0.00000000
Si       2.62197326      -2.77923693       0.15742935       0.00000000
Si      -2.86479201      -0.04569345      -2.54786858       0.00000000
Si       2.67250484      -0.02637351       2.75081824       0.00000000
