10
Lattice="16.290000149 0.0 0.0 0.0 16.290000149 0.0 0.0 0.0 29.1751946751" Properties=species:S:1:pos:R:3:initial_magmoms:R:1 pbc="T T T"
Si       1.91912492      -1.05974270       0.77964873       0.00000000
Si      -1.25371099      -1.31751241      -1.47104249       0.00000000
Si       1.15948963       1.43838095      -1.50783241       0.00000000
Si      -0.97896385       0.39960022       2.15129133       0.00000000
H       -1.87830218       1.97204135       0.65617930       0.00000000
Si       0.03860730       2.54766480       2.54927016       0.00000000
Si      -2.60165963      -2.60520434      -0.09942906       0.00000000
Si       2.59701698       2.76585306      -0.29455277       0.00000000
Si       3.66754692      -0.73840779      -0.71167052       0.00000000
Si       2.68468976       0.12186712      -2.70063107       0.00000000
