10
Lattice="16.290000149 0.0 0.0 0.0 16.290000149 0.0 0.0 0.0 29.1751946751" Properties=species:S:1:pos:R:3:initial_magmoms:R:1 pbc="T T T"
Si       1.43324308       1.37391490       1.19236103       0.00000000
Si       1.42959412      -1.32033709      -1.28887258       0.00000000
Si      -1.32077692       1.44086680      -1.27939064       0.00000000
Si      -1.38557854      -1.33550308       1.33797443       0.00000000
Si       0.05323572      -2.66059685      -2.62182887       0.00000000
Si      -2.67056633       0.08089614      -2.62985205       0.00000000
Si       0.00926901      -2.61394229       2.70220653       0.00000000
Si      -2.56578905       0.11771154       2.74932447       0.00000000
Si       2.73593810       0.07843635       2.63341142       0.00000000
Si       0.06546951       2.80070715      -2.59545449       0.00000000
