10
Lattice="16.290000149 0.0 0.0 0.0 16.290000149 0.0 0.0 0.0 29.1751946751" Properties=species:S:1:pos:R:3:initial_magmoms:R:1 pbc="T T T"
Si      -1.26270633       1.42690627       1.32764174       0.00000000
Si       1.63328103      -1.18389205       1.21373916       0.00000000
Si       0.68227082       1.76448395      -1.50576097       0.00000000
Si      -1.33410540      -1.97817617      -0.48541689       0.00000000
Si       0.29761830      -2.59037881       2.56691532       0.00000000
Si       0.16534676       0.85182040      -3.59689305       0.00000000
Si      -2.58485161       0.10125864       2.69248244       0.00000000
Si      -0.40279306      -2.79380344      -2.47989155       0.00000000
Si       0.24370003       2.81224047       2.49442371       0.00000000
Si      -2.40059542       2.93024523      -0.05417834       0.00000000
