10
Lattice="16.290000149 0.0 0.0 0.0 16.290000149 0.0 0.0 0.0 29.1751946751" Properties=species:S:1:pos:R:3:initial_magmoms:R:1 pbc="T T T"
Si       1.28270719       1.45288964      -1.27758177       0.00000000
Si      -1.03579966       1.62859276       1.31463427       0.00000000
Si       1.52741557      -0.98222185       1.51258797       0.00000000
Si      -1.58254093      -1.31944114      -1.18620507       0.00000000
Si       2.47076948       2.60230960       0.41565900       0.00000000
Si      -1.56004444       0.37857960       3.24795772       0.00000000
Si       2.58874166       0.04419477      -2.61993248       0.00000000
Si       3.04782645       0.86310937       1.93247737       0.00000000
H        0.65651959      -2.27568044      -2.87078081       0.00000000
Si       2.54959679      -2.74271475       0.25370749       0.00000000
