10
Lattice="16.290000149 0.0 0.0 0.0 16.290000149 0.0 0.0 0.0 29.1751946751" Properties=species:S:1:pos:R:3:initial_magmoms:R:1 pbc="T T T"
Si       1.35407368       1.35539317      -1.33634062       0.00000000
Si       1.39149181      -1.45168336       1.20032586       0.00000000
Si      -1.37717290      -1.36309834      -1.33867463       0.00000000
Si      -1.30484530       1.34801380       1.42841753       0.00000000
Si      -0.00939933      -2.78989059       2.44914089       0.00000000
Si       2.66207924       2.66995872       0.10742307       0.00000000
Si      -0.01980864       2.70434528      -2.67224361       0.00000000
Si       2.70765866      -0.02660157      -2.67516113       0.00000000
Si      -2.64531683      -0.03181437       2.74392706       0.00000000
Si      -2.70515000       2.69102332       0.06888263       0.00000000
