10
Lattice="16.290000149 0.0 0.0 0.0 16.290000149 0.0 0.0 0.0 29.1751946751" Properties=species:S:1:pos:R:3:initial_magmoms:R:1 pbc="T T T"
H       -0.60763330       1.30726274      -0.44285028       0.00000000
Si      -0.84297493      -1.65921145      -1.39848378       0.00000000
Si       2.30496986       0.08090266      -0.36247262       0.00000000
Si      -0.75409669      -0.58306960       2.15467565       0.00000000
H        1.40563153       1.65334379      -1.85758465       0.00000000
Si       2.36263646      -1.98056428       0.93025108       0.00000000
Si      -2.22263857      -0.21048309      -2.55621386       0.00000000
Si      -2.12221561       2.76816624       0.18882186       0.00000000
Si       1.31406544      -1.30767976       3.00028949       0.00000000
Si      -3.43757334       1.06902149      -0.94667672       0.00000000
