10
Lattice="16.290000149 0.0 0.0 0.0 16.290000149 0.0 0.0 0.0 29.1751946751" Properties=species:S:1:pos:R:3:initial_magmoms:R:1 pbc="T T T"
Si       0.17914113      -1.38751868      -0.61052012       0.00000000
Si      -0.69535495       1.82755883       1.92229814       0.00000000
Si      -0.51189696       1.28264203      -2.39630461       0.00000000
Si      -2.53395839       0.94622095       0.73553000       0.00000000
Si      -2.45052101       0.25414029      -1.49423677       0.00000000
Si       1.21199230       2.61803108       0.80051191       0.00000000
Si       2.05227938      -0.77842092       2.05515031       0.00000000
Si       1.01265157      -2.63213822       1.10286320       0.00000000
Si       2.91755532       0.94991878       0.67262769       0.00000000
Si       2.07381476      -1.37058848      -1.95039094       0.00000000
