10
Lattice="16.290000149 0.0 0.0 0.0 16.290000149 0.0 0.0 0.0 29.1751946751" Properties=species:S:1:pos:R:3:initial_magmoms:R:1 pbc="T T T"
Si       1.35288288       1.35252613       1.36070190       0.00000000
Si       1.38824196      -1.36115983      -1.32294920       0.00000000
Si      -1.33832125      -1.35751087       1.38042434       0.00000000
Si      -1.34563546       1.38096847      -1.35416666       0.00000000
Si      -2.68975595       2.71182890       0.03282209       0.00000000
Si       0.05316991      -2.73802322      -2.66807155       0.00000000
Si      -2.70190829       0.03122793      -2.70885848       0.00000000
Si       2.69120576      -0.00641826       2.72481731       0.00000000
Si       2.71147052       2.70498710      -0.00113783       0.00000000
Si      -2.69747741      -2.72280836       0.04980206       0.00000000
