10
Lattice="16.290000149 0.0 0.0 0.0 16.290000149 0.0 0.0 0.0 29.1751946751" Properties=species:S:1:pos:R:3:initial_magmoms:R:1 pbc="T T T"
Si      -1.34820928      -1.36153450      -1.35072399       0.00000000
Si       1.34286616      -1.38311875       1.34398452       0.00000000
Si      -1.38833155       1.35102745       1.33327722       0.00000000
Si       1.34789977       1.34775316      -1.37855712       0.00000000
Si       2.71114472      -0.02539611       2.67308969       0.00000000
Si      -0.03705975       2.73732275       2.65625560       0.00000000
Si      -2.69129536      -0.00371412      -2.71448929       0.00000000
Si       2.71293662       2.70326036      -0.03168426       0.00000000
Si       0.01063737      -2.71705799      -2.70494900       0.00000000
Si      -0.03277548      -2.71969697       2.70518240       0.00000000
