10
Lattice="16.290000149 0.0 0.0 0.0 16.290000149 0.0 0.0 0.0 29.1751946751" Properties=species:S:1:pos:R:3:initial_magmoms:R:1 pbc="T T T"
Si       1.46017730       1.17895618      -1.41599182       0.00000000
Si      -1.39569463      -1.32103756      -1.36583966       0.00000000
Si      -1.33012738       1.44036181       1.31432502       0.00000000
Si       1.38841300      -1.36021501       1.35651235       0.00000000
Si       0.14517648      -2.59144580      -2.56100151       0.00000000
Si       0.05742225       2.35094024      -2.87507248       0.00000000
H       -0.84074320       3.09433440      -1.89569037       0.00000000
Si      -2.67157631       0.02210553       2.67442883       0.00000000
Si       2.68024911       2.66890475      -0.01789023       0.00000000
Si      -2.61182459      -2.75581191       0.07760310       0.00000000
