10
Lattice="16.290000149 0.0 0.0 0.0 16.290000149 0.0 0.0 0.0 29.1751946751" Properties=species:S:1:pos:R:3:initial_magmoms:R:1 pbc="T T T"
Si       1.29785689       1.28386329       1.50604397       0.00000000
Si      -1.33516099      -1.36459588       1.40851713       0.00000000
Si       1.48162438      -1.29881686      -1.33992917       0.00000000
Si      -1.35692443       1.38642351      -1.39822120       0.00000000
Si      -0.00514764      -2.55215318      -2.71524784       0.00000000
Si      -2.60824079       2.72981421       0.08775169       0.00000000
Si       2.69713532      -2.71433642       0.10904550       0.00000000
Si       2.28664361       3.07122003       0.35374340       0.00000000
Si       2.37008099       2.37913937      -1.87602337       0.00000000
Si       0.16565301       2.76001587      -2.67863297       0.00000000
