10
Lattice="16.290000149 0.0 0.0 0.0 16.290000149 0.0 0.0 0.0 29.1751946751" Properties=species:S:1:pos:R:3:initial_magmoms:R:1 pbc="T T T"
H       -1.04645332       1.11341174       0.01951821       0.00000000
Si      -0.83316835      -1.92928825       1.02011068       0.00000000
Si       0.27776079      -0.73459593      -2.20716183       0.00000000
Si       1.86803622       0.89861994       1.12102768       0.00000000
Si       2.54556013      -1.22116194      -2.08663910       0.00000000
Si      -2.39479292      -2.70679367      -0.57256320       0.00000000
Si       0.93672388       1.71424721       3.11550234       0.00000000
H        0.16811280       3.28320229      -1.71307991       0.00000000
Si      -2.88323229       0.53312772       2.39472915       0.00000000
Si       0.93491569      -3.08659502       2.05081196       0.00000000
