10
Lattice="16.290000149 0.0 0.0 0.0 16.290000149 0.0 0.0 0.0 29.1751946751" Properties=species:S:1:pos:R:3:initial_magmoms:R:1 pbc="T T T"
Si       1.18141597       0.54051849       1.05229092       0.00000000
Si      -1.29606499      -0.55312696      -0.91490493       0.00000000
Si      -0.07372854      -2.40406193      -1.58937708       0.00000000
Si      -0.35945514       1.81092674       2.24745277       0.00000000
Si       2.84962276       1.32392089      -0.39619914       0.00000000
Si      -3.08788356      -1.13596687       0.52016455       0.00000000
Si       2.31930506      -0.96282046       2.43411100       0.00000000
Si      -2.31560723       0.77902039      -2.53068556       0.00000000
Si      -1.83185939       3.01957959       0.79108540       0.00000000
H       -0.32293296       0.70068178      -3.57480743       0.00000000
