10
Lattice="16.290000149 0.0 0.0 0.0 16.290000149 0.0 0.0 0.0 29.1751946751" Properties=species:S:1:pos:R:3:initial_magmoms:R:1 pbc="T T T"
Si      -1.42959412       1.32033709       1.28887258       0.00000000
Si      -1.37635840      -1.34025976      -1.33295629       0.00000000
Si       1.35031069       1.35827650      -1.35221192       0.00000000
Si       1.35643573      -1.33763707       1.37508528       0.00000000
Si       0.00364896       2.69425199       2.48123361       0.00000000
Si       0.00255753      -2.70629030      -2.64452717       0.00000000
Si      -2.72691344       0.03653847      -2.67486937       0.00000000
Si       2.72893340       0.01124010      -2.67451927       0.00000000
Si      -0.01177767       2.75200005      -2.65803529       0.00000000
Si      -2.72870534      -2.69211800       0.02990457       0.00000000
