10
Lattice="16.290000149 0.0 0.0 0.0 16.290000149 0.0 0.0 0.0 29.1751946751" Properties=species:S:1:pos:R:3:initial_magmoms:R:1 pbc="T T T"
H        1.24942672      -1.95874220       0.22660374       0.00000000
Si       1.88586074       0.71322508       1.25631306       0.00000000
Si      -0.74324755      -1.88040359       1.27072560       0.00000000
H       -2.03587535      -0.61155919      -1.14816061       0.00000000
Si       0.72558919      -0.29831877      -2.30343997       0.00000000
Si      -1.77168413       1.55773126       0.60944064       0.00000000
H       -2.64837935      -0.16524576      -0.98816384       0.00000000
H       -0.50990958       2.10667169      -2.09305764       0.00000000
H        2.84193714       0.45691821      -1.22404529       0.00000000
H        2.34473375       2.00142200       0.59920015       0.00000000
