10
Lattice="16.290000149 0.0 0.0 0.0 16.290000149 0.0 0.0 0.0 29.1751946751" Properties=species:S:1:pos:R:3:initial_magmoms:R:1 pbc="T T T"
Si       0.65441818       0.85051720      -1.04318826       0.00000000
H       -1.37573938      -0.89686225      -0.53781554       0.00000000
H       -0.47904003      -1.30906441       1.19387814       0.00000000
Si       0.60009103      -2.10481463       1.93084356       0.00000000
Si      -2.23906052       0.95623930       1.68457574       0.00000000
Si       1.93222208       2.31987521       0.25084832       0.00000000
Si       1.89247448      -0.51095214      -2.46632508       0.00000000
Si      -2.52320699       1.85663648      -0.56486094       0.00000000
Si      -2.25572519      -1.83992294      -1.29476596       0.00000000
Si      -0.92220949       1.93908017      -2.36412437       0.00000000
