10
Lattice="16.290000149 0.0 0.0 0.0 16.290000149 0.0 0.0 0.0 29.1751946751" Properties=species:S:1:pos:R:3:initial_magmoms:R:1 pbc="T T T"
Si      -1.37052658       1.36074444      -1.31358397       0.00000000
Si      -1.38748447      -1.35917245       1.30433543       0.00000000
Si       1.32383944      -1.35177679      -1.38491732       0.00000000
Si       1.35568639       1.37153656       1.33852876       0.00000000
Si      -0.00500103      -2.70495452       2.64038429       0.00000000
Si      -0.02441871       2.69083109      -2.66052101       0.00000000
Si       2.67380804       0.04305273      -2.69578215       0.00000000
Si      -2.70554096       0.01133784       2.69319140       0.00000000
Si       2.73826757       0.01233153       2.66106951       0.00000000
Si      -0.00444717       2.72901485       2.67781607       0.00000000
