10
Lattice="16.290000149 0.0 0.0 0.0 16.290000149 0.0 0.0 0.0 29.1751946751" Properties=species:S:1:pos:R:3:initial_magmoms:R:1 pbc="T T T"
Si      -1.37863900      -1.36407574      -1.30471471       0.00000000
Si      -1.38526903       1.31452156       1.35839706       0.00000000
Si       1.32919885      -1.36712197       1.37561043       0.00000000
Si       1.32476797       1.38691432      -1.38305010       0.00000000
Si      -2.69553890       0.02748123      -2.64662778       0.00000000
Si      -0.01500309       2.67620267       2.68601430       0.00000000
Si       2.68835501      -0.00182448       2.70623271       0.00000000
Si      -0.05129721      -2.72271062      -2.67122247       0.00000000
Si       2.74994751       0.02661786      -2.65330890       0.00000000
Si       2.69480585      -2.71407692       0.02552830       0.00000000
