10
Lattice="16.290000149 0.0 0.0 0.0 16.290000149 0.0 0.0 0.0 29.1751946751" Properties=species:S:1:pos:R:3:initial_magmoms:R:1 pbc="T T T"
Si      -1.33890769      -1.32737437       1.38092031       0.00000000
Si       1.37508778      -1.35751087      -1.32073189       0.00000000
Si       1.36397800       1.29945331       1.38906019       0.00000000
Si      -1.35643573       1.33763707      -1.37508528       0.00000000
Si      -0.05009175       2.73641052       2.54719872       0.00000000
Si       0.00058644      -2.72113049      -2.65120829       0.00000000
Si       2.72885195       0.01860318      -2.66287837       0.00000000
Si      -2.77676085       0.04403187       2.61599383       0.00000000
Si      -2.72113049      -2.67840182       0.03763600       0.00000000
Si       2.71191035       2.70239699       0.04577588       0.00000000
