10
Lattice="16.290000149 0.0 0.0 0.0 16.290000149 0.0 0.0 0.0 29.1751946751" Properties=species:S:1:pos:R:3:initial_magmoms:R:1 pbc="T T T"
Si      -1.40275504       1.17198406      -1.45908066       0.00000000
Si      -1.46017730      -1.17895618       1.41599182       0.00000000
Si       1.46095205      -1.27956322      -1.34547245       0.00000000
Si       1.22007182       1.48994857       1.39810159       0.00000000
H       -2.30092049       1.91537822      -0.47969855       0.00000000
Si       2.65399256       0.41200668      -2.53587875       0.00000000
Si      -0.07176429      -2.53917119       2.77250416       0.00000000
Si      -2.85587193      -2.49999374       0.05015216       0.00000000
Si       2.60562755       0.15003090       2.76996592       0.00000000
Si      -0.25031898       2.81033454      -2.64093862       0.00000000
