10
Lattice="16.290000149 0.0 0.0 0.0 16.290000149 0.0 0.0 0.0 29.1751946751" Properties=species:S:1:pos:R:3:initial_magmoms:R:1 pbc="T T T"
Si      -1.37508778       1.35751087       1.32073189       0.00000000
Si      -1.37450134      -1.36361962      -1.33047640       0.00000000
Si       1.35376417       1.37611405      -1.34214648       0.00000000
Si       1.36026388      -1.32460507       1.39189019       0.00000000
Si      -0.01110978       2.65696418       2.70979208       0.00000000
Si       2.68333769      -2.69514794       0.01840955       0.00000000
Si      -0.01397682      -2.71490771      -2.68315513       0.00000000
Si       2.70076799       0.02836089      -2.70865425       0.00000000
Si      -2.71399547       0.03013650       2.70165220       0.00000000
Si      -2.73152351       2.69514794      -0.05435339       0.00000000
