10
Lattice="16.290000149 0.0 0.0 0.0 16.290000149 0.0 0.0 0.0 29.1751946751" Properties=species:S:1:pos:R:3:initial_magmoms:R:1 pbc="T T T"
Si      -1.39639510       1.34405533       1.31588881       0.00000000
Si       1.34030863       1.35435061      -1.36805405       0.00000000
Si      -1.40103775      -1.36936999      -1.31136665       0.00000000
Si       1.35231436      -1.30276018       1.43454432       0.00000000
Si       2.58292613      -2.73256282       0.01662986       0.00000000
Si      -0.02484225       2.57605175       2.75402168       0.00000000
Si       2.68703552       2.68073129       0.03880301       0.00000000
Si      -2.89991325      -0.00866628       2.47951227       0.00000000
Si       2.66338244      -0.01619226      -2.74153469       0.00000000
Si      -0.07635123      -2.76179522      -2.67478185       0.00000000
