10
Lattice="16.290000149 0.0 0.0 0.0 16.290000149 0.0 0.0 0.0 29.1751946751" Properties=species:S:1:pos:R:3:initial_magmoms:R:1 pbc="T T T"
Si       1.33832288      -1.35894439       1.36411540       0.00000000
Si      -1.35288288      -1.35252613      -1.36070190       0.00000000
Si      -1.32747183       1.34977312       1.39469101       0.00000000
Si       1.35858764       1.35246097      -1.36183974       0.00000000
Si       2.68959468       0.02735091       2.68709378       0.00000000
Si      -2.67247064       2.70775640       0.02803736       0.00000000
Si       0.03535907      -2.71368596      -2.68365111       0.00000000
Si      -2.69120414      -2.71003700       0.01972243       0.00000000
Si       2.69860305       2.71490771       0.00437628       0.00000000
Si      -2.69851835       0.02844234      -2.71486857       0.00000000
