10
Lattice="16.290000149 0.0 0.0 0.0 16.290000149 0.0 0.0 0.0 29.1751946751" Properties=species:S:1:pos:R:3:initial_magmoms:R:1 pbc="T T T"
Si       1.37671678       1.35573526      -1.33231444       0.00000000
Si       1.36940257      -1.34258923       1.35337893       0.00000000
Si      -1.32006016       1.36907677       1.38305010       0.00000000
Si      -1.36655182      -1.36155079      -1.35299965       0.00000000
Si      -0.00586440       2.71494029      -2.65485519       0.00000000
Si      -0.01684386      -2.70242957       2.66944279       0.00000000
Si       2.72715780      -0.02062314      -2.68160884       0.00000000
Si      -2.68323995       0.01904301       2.73301554       0.00000000
Si      -2.71034651       2.71726325       0.05021051       0.00000000
Si       2.72174951      -2.71163342       0.00192556       0.00000000
