10
Lattice="16.290000149 0.0 0.0 0.0 16.290000149 0.0 0.0 0.0 29.1751946751" Properties=species:S:1:pos:R:3:initial_magmoms:R:1 pbc="T T T"
Si      -1.46451825       1.21145473       1.33785773       0.00000000
Si       1.17449435       1.52906086      -1.31944818       0.00000000
Si      -0.22385881      -1.85451878      -1.43311474       0.00000000
Si       1.43979329      -1.18687312       1.44291760       0.00000000
H       -2.93824199      -1.24895431      -1.42071528       0.00000000
Si       2.08189623      -2.03243816      -2.03651611       0.00000000
Si      -2.61695432      -0.42689574       2.51971569       0.00000000
Si       2.53198893       0.17731665      -2.64636521       0.00000000
Si       3.16089697      -1.94606858       0.06275584       0.00000000
Si      -0.00606965       2.59538798       2.68653945       0.00000000
