10
Lattice="16.290000149 0.0 0.0 0.0 16.290000149 0.0 0.0 0.0 29.1751946751" Properties=species:S:1:pos:R:3:initial_magmoms:R:1 pbc="T T T"
Si      -1.31216419      -1.33279894       1.36892931       0.00000000
Si      -1.47205054       1.29196317      -1.26804149       0.00000000
Si       1.23152097       1.35822112       1.44694378       0.00000000
Si       1.37889985      -1.39742137      -1.29593297       0.00000000
Si       2.61118461      -0.09050724       2.60467386       0.00000000
Si      -0.08880147       2.62834265      -2.64974953       0.00000000
Si       2.64024597       2.65445552       0.05954657       0.00000000
Si      -2.61819866       0.07589593       2.71128002       0.00000000
Si       2.71532658      -0.04670343      -2.66559166       0.00000000
Si      -2.58996809      -2.80215696       0.07489272       0.00000000
