10
Lattice="10.86 0.0 0.0 0.0 10.86 0.0 0.0 0.0 10.86" Properties=species:S:1:pos:R:3:initial_magmoms:R:1 pbc="T T T"
Si       1.04845698       1.64132610       1.27097838       0.00000000
Si      -1.66654302      -1.07367390       1.27097838       0.00000000
Si      -1.66654302       1.64132610      -1.44402162       0.00000000
Si       2.22093516      -2.17184796      -0.20284308       0.00000000
Si       0.54176196      -2.77013622      -1.73716560       0.00000000
Si       2.40595698       0.28382610       2.62847838       0.00000000
Si      -0.30904302      -2.43117390       2.62847838       0.00000000
Si      -3.02404302      -2.43117390      -0.08652162       0.00000000
Si       2.54013228       2.97517302      -0.06042504       0.00000000
Si      -0.30904302       2.99882610       2.62847838       0.00000000
