10
Lattice="10.86 0.0 0.0 0.0 10.86 0.0 0.0 0.0 10.86" Properties=species:S:1:pos:R:3:initial_magmoms:R:1 pbc="T T T"
Si       1.36328838       1.35171162      -1.27022904       0.00000000
Si      -1.35171162      -1.36328838      -1.27022904       0.00000000
Si      -1.35171162       1.35171162       1.44477096       0.00000000
Si       1.48631046      -1.48631046       1.58962164       0.00000000
Si       2.63626500      -2.63626500       0.08211246       0.00000000
Si       0.00578838       2.70921162      -2.62772904       0.00000000
Si      -2.70921162      -0.00578838      -2.62772904       0.00000000
Si       2.72078838      -0.00578838      -2.62772904       0.00000000
Si       0.00578838      -2.72078838      -2.62772904       0.00000000
Si      -2.70921162       2.70921162       0.08727096       0.00000000
