10
Lattice="10.86 0.0 0.0 0.0 10.86 0.0 0.0 0.0 10.86" Properties=species:S:1:pos:R:3:initial_magmoms:R:1 pbc="T T T"
Si      -1.49895150      -1.09286352       1.13509806       0.00000000
Si       1.21604850       1.62213648       1.13509806       0.00000000
Si       1.17774528      -0.62816412      -2.23620432       0.00000000
Si      -1.49895150       1.62213648      -1.57990194       0.00000000
Si       2.47428810      -2.44769196      -0.09338514       0.00000000
Si      -0.14145150      -2.45036352       2.49259806       0.00000000
Si       2.57354850       0.26463648       2.49259806       0.00000000
Si      -2.85645150      -2.45036352      -0.22240194       0.00000000
Si      -0.10725336      -2.30415534      -2.99564412       0.00000000
Si      -2.85645150       0.26463648       2.49259806       0.00000000
