10
Lattice="16.290000149 0.0 0.0 0.0 16.290000149 0.0 0.0 0.0 29.1751946751" Properties=species:S:1:pos:R:3:initial_magmoms:R:1 pbc="T T T"
Si       1.60917508      -0.17472654      -1.67836142       0.00000000
Si      -0.43191306       2.29005637      -0.30794418       0.00000000
Si       0.25192485      -0.51230421       2.29652195       0.00000000
Si      -1.89680762      -1.29956734      -0.63377275       0.00000000
H        1.33387408      -2.22366647       1.50590685       0.00000000
H       -2.77957902      -0.44942481      -1.52495825       0.00000000
Si      -1.49376043       1.03110814       2.74572425       0.00000000
Si       0.04447170      -0.95513158      -3.27141458       0.00000000
Si      -2.32722200       2.27474051       1.03116808       0.00000000
Si      -0.86749138      -2.78899464      -2.10303556       0.00000000
