10
Lattice="16.290000149 0.0 0.0 0.0 16.290000149 0.0 0.0 0.0 29.1751946751" Properties=species:S:1:pos:R:3:initial_magmoms:R:1 pbc="T T T"
Si      -0.43942275       0.24777090      -2.28335314       0.00000000
Si       0.80969446       1.85955239       1.18112829       0.00000000
Si      -1.87359437      -0.80216848       1.19651237       0.00000000
Si       1.63287703      -1.73543888       0.08450274       0.00000000
Si       2.18461934       0.59544838       2.59893480       0.00000000
Si      -0.67077334      -2.19921518       2.63799164       0.00000000
Si      -2.15567201       1.88043617      -2.17718461       0.00000000
Si      -0.48746196      -2.04633353      -2.95175685       0.00000000
Si       1.71489719      -2.42817113      -2.14512107       0.00000000
Si       0.64498627      -3.52243723       1.23776901       0.00000000
