10
Lattice="16.290000149 0.0 0.0 0.0 16.290000149 0.0 0.0 0.0 29.1751946751" Properties=species:S:1:pos:R:3:initial_magmoms:R:1 pbc="T T T"
Si       1.36852291       1.34877943       1.33788690       0.00000000
Si       1.44295192      -1.33145828      -1.28262908       0.00000000
Si      -1.34964280      -1.38787217       1.33526113       0.00000000
Si      -1.37744983       1.33985251      -1.35880552       0.00000000
Si       0.11751606      -2.66765727      -2.61933731       0.00000000
Si       0.03360627       2.74413198      -2.61633810       0.00000000
Si       0.00281817       2.69583212       2.68793986       0.00000000
Si       2.69371442      -0.03486060       2.69771355       0.00000000
Si      -2.71244792      -0.02541240       2.68064606       0.00000000
Si      -2.79725367      -0.08909001      -2.59457924       0.00000000
