10
Lattice="16.290000149 0.0 0.0 0.0 16.290000149 0.0 0.0 0.0 29.1751946751" Properties=species:S:1:pos:R:3:initial_magmoms:R:1 pbc="T T T"
Si      -1.36692649      -1.35710362      -1.33062228       0.00000000
Si      -1.43755993       1.33589404       1.27991579       0.00000000
Si       1.35298225       1.35197227      -1.36207314       0.00000000
Si       1.36238158      -1.32597343       1.38176639       0.00000000
Si      -0.08659764       2.67740813       2.59309130       0.00000000
Si      -0.09495441      -2.62451450       2.68438049       0.00000000
Si       0.00356751      -2.71428869      -2.66276167       0.00000000
Si      -2.71060715       0.02544498      -2.67408164       0.00000000
Si       2.73162125      -0.01387908      -2.67399412       0.00000000
Si       2.73030176       2.69175962      -0.02946695       0.00000000
