10
Lattice="16.290000149 0.0 0.0 0.0 16.290000149 0.0 0.0 0.0 29.1751946751" Properties=species:S:1:pos:R:3:initial_magmoms:R:1 pbc="T T T"
Si       1.35635428       1.36824598       1.33625309       0.00000000
Si      -1.32868246       1.36075258      -1.37368487       0.00000000
Si       1.38455227      -1.35494846      -1.33371485       0.00000000
Si      -1.34739152      -1.35423984       1.37517280       0.00000000
Si       2.71554302       0.00241092       2.67031804       0.00000000
Si      -2.69904125      -0.00827532      -2.69847211       0.00000000
Si       0.05822046      -2.69423570       2.70626188       0.00000000
Si       0.02722059      -2.71744895      -2.68373863       0.00000000
Si      -2.69470811       2.71212212      -0.02476974       0.00000000
Si      -0.02081862       2.72051147       2.68741471       0.00000000
