10
Lattice="16.290000149 0.0 0.0 0.0 16.290000149 0.0 0.0 0.0 29.1751946751" Properties=species:S:1:pos:R:3:initial_magmoms:R:1 pbc="T T T"
Si       1.67953160      -1.67705552      -0.24956462       0.00000000
Si      -1.86080672      -0.84116674      -1.25383317       0.00000000
Si      -0.62965738       0.33374952       2.32911414       0.00000000
Si       0.69261823       1.85787452      -1.42179476       0.00000000
H        2.22581675       0.77608819       1.12225304       0.00000000
H       -1.06249897       2.49468320       0.11045729       0.00000000
H       -2.61213410      -0.28833300       1.24616009       0.00000000
H        0.59318407      -1.63183447       2.55309211       0.00000000
H       -0.49357071       2.36999954      -2.22023231       0.00000000
H       -3.26275671       0.13483233       1.20309750       0.00000000
