10
Lattice="16.290000149 0.0 0.0 0.0 16.290000149 0.0 0.0 0.0 29.1751946751" Properties=species:S:1:pos:R:3:initial_magmoms:R:1 pbc="T T T"
Si      -1.50306202      -1.36101322       1.16079347       0.00000000
Si       1.38864106      -1.35220033      -1.31871880       0.00000000
Si       1.33827238       1.28849014       1.43197691       0.00000000
Si      -1.34241004       1.34688979      -1.38377948       0.00000000
H       -0.85735900      -2.20486781       2.23770826       0.00000000
Si      -0.01115865      -2.72318303      -2.63093153       0.00000000
Si       2.68801292       2.67341708       0.07454262       0.00000000
Si      -2.93575125      -0.13515813       2.44692358       0.00000000
Si       2.74133010      -2.66507660       0.10255081       0.00000000
Si       2.73175158      -0.00304623      -2.68808574       0.00000000
