10
Lattice="16.290000149 0.0 0.0 0.0 16.290000149 0.0 0.0 0.0 29.1751946751" Properties=species:S:1:pos:R:3:initial_magmoms:R:1 pbc="T T T"
Si      -2.19862874       0.71845417       0.46694899       0.00000000
Si      -0.27249912      -2.03271509       1.19460752       0.00000000
Si       1.58350204       1.30904812       1.20230977       0.00000000
Si      -0.29077650       0.88268995      -2.24164691       0.00000000
H        2.23728491      -0.96585040      -1.64127975       0.00000000
H        0.79918741      -1.87263326      -2.18268384       0.00000000
H        1.60782301      -2.62076780      -0.53098854       0.00000000
H        1.03889476      -2.49608414       1.79970106       0.00000000
Si      -2.15461316       2.86303757      -0.51494219       0.00000000
Si      -0.39908871       3.18842381      -1.99931774       0.00000000
