10
Lattice="16.290000149 0.0 0.0 0.0 16.290000149 0.0 0.0 0.0 29.1751946751" Properties=species:S:1:pos:R:3:initial_magmoms:R:1 pbc="T T T"
Si       1.36257706      -1.33996654       1.36388200       0.00000000
Si       1.35560494       1.37070577      -1.34614348       0.00000000
Si      -1.35516511       1.35278677       1.36592426       0.00000000
Si      -1.33537276      -1.40423059      -1.33841206       0.00000000
Si       2.70674642      -2.67064778      -0.02284418       0.00000000
Si      -2.76851811      -0.08449623      -2.62130372       0.00000000
Si       0.01101204      -2.73114884       2.69176181       0.00000000
Si      -2.72401382       2.70109379       0.02444881       0.00000000
Si       0.00935046       2.71560818      -2.71154259       0.00000000
Si       2.71292033       2.71896392       0.02138542       0.00000000
