10
Lattice="16.290000149 0.0 0.0 0.0 16.290000149 0.0 0.0 0.0 29.1751946751" Properties=species:S:1:pos:R:3:initial_magmoms:R:1 pbc="T T T"
Si       1.37458279       1.34245891      -1.34267163       0.00000000
Si       1.36179514      -1.39466836       1.30477306       0.00000000
Si      -1.35467641      -1.35327547      -1.36055603       0.00000000
Si      -1.35221662       1.37002159       1.35081151       0.00000000
Si       0.00573408       2.69076593      -2.68414709       0.00000000
Si       2.78128947      -0.08430075       2.61867795       0.00000000
Si      -2.74089026       0.01026270       2.66401620       0.00000000
Si       0.01299942      -2.75257020       2.65826869       0.00000000
Si       0.01454697      -2.73225656      -2.68315513       0.00000000
Si       0.02342502       2.73613359       2.68864007       0.00000000
