10
Lattice="16.290000149 0.0 0.0 0.0 16.290000149 0.0 0.0 0.0 29.1751946751" Properties=species:S:1:pos:R:3:initial_magmoms:R:1 pbc="T T T"
Si       0.61989967       0.51595317      -2.18110838       0.00000000
Si      -2.30251007      -0.05940963       0.45020243       0.00000000
Si       0.76962106       2.04579596       0.88243294       0.00000000
Si       1.22196178      -1.87087882       0.95277433       0.00000000
Si       1.69818365       1.00458802       2.71775691       0.00000000
Si       3.02932101      -0.54362989       1.56387796       0.00000000
Si       1.30111489      -1.53622358      -2.94500250       0.00000000
Si      -0.23843673      -0.02585223       3.61804507       0.00000000
Si      -2.44079588       0.35598537       2.81140928       0.00000000
Si      -3.15830523       2.02228949      -0.33525216       0.00000000
