10
Lattice="16.290000149 0.0 0.0 0.0 16.290000149 0.0 0.0 0.0 29.1751946751" Properties=species:S:1:pos:R:3:initial_magmoms:R:1 pbc="T T T"
Si      -1.32944320       1.31408173       1.42014053       0.00000000
Si      -1.42615693      -1.36018243      -1.27932237       0.00000000
Si       1.32874273      -1.39561318       1.36925607       0.00000000
Si       1.33592662       1.36472278      -1.40786944       0.00000000
Si       0.01928736      -2.55044387      -2.63952946       0.00000000
Si       2.63321336       2.64855692       0.09809284       0.00000000
Si      -2.60813817       2.68694756       0.03282209       0.00000000
Si      -2.74192631      -0.07615575       2.67624936       0.00000000
Si       2.66589110      -0.07091037       2.77401544       0.00000000
Si       2.71034651      -2.75182086       0.04455052       0.00000000
