10
Lattice="16.290000149 0.0 0.0 0.0 16.290000149 0.0 0.0 0.0 29.1751946751" Properties=species:S:1:pos:R:3:initial_magmoms:R:1 pbc="T T T"
Si      -1.39010716      -1.34506531      -1.27530027       0.00000000
Si       1.32987000      -1.40924791       1.31066645       0.00000000
Si      -1.42530985       1.36016614       1.27002540       0.00000000
Si       1.29531565       1.31453785      -1.46909067       0.00000000
Si       2.62665827       2.67447593      -0.09061815       0.00000000
Si       2.66509452      -0.03251484       2.65549704       0.00000000
Si      -0.06898815       2.70959717       2.62451299       0.00000000
Si      -0.13256802      -2.74600533      -2.64008379       0.00000000
Si      -2.74998009      -0.02645496       2.65322138       0.00000000
Si       2.68049998      -2.73561231      -0.09589886       0.00000000
