10
Lattice="16.290000149 0.0 0.0 0.0 16.290000149 0.0 0.0 0.0 29.1751946751" Properties=species:S:1:pos:R:3:initial_magmoms:R:1 pbc="T T T"
Si       1.41248311       1.39023748      -1.25610883       0.00000000
Si       1.36576339      -1.34788348       1.37175930       0.00000000
Si      -1.28160208       1.34524450       1.45616314       0.00000000
Si      -1.39040690      -1.28738242      -1.43438386       0.00000000
Si      -2.69376981      -2.64108143      -0.00058350       0.00000000
Si      -2.59821267       2.78065904       0.18027353       0.00000000
Si       0.13378814       2.76310331      -2.64342727       0.00000000
Si       2.74192631       0.07615575      -2.67624936       0.00000000
Si       2.71752389      -2.71723718       0.01324554       0.00000000
Si       0.01887197      -2.69560406       2.73984253       0.00000000
