10
Lattice="16.290000149 0.0 0.0 0.0 16.290000149 0.0 0.0 0.0 29.1751946751" Properties=species:S:1:pos:R:3:initial_magmoms:R:1 pbc="T T T"
Si      -0.83346157       1.24363237      -1.71455617       0.00000000
Si      -1.83231551      -1.02216493       0.94211372       0.00000000
Si       1.03966039       1.85357559       0.95226668       0.00000000
Si       1.74568529      -1.54341235      -0.44920230       0.00000000
H       -1.01172304       2.63182871      -1.10520305       0.00000000
Si      -0.42613011      -2.38624067       2.19635825       0.00000000
Si       1.49376043      -1.03110814      -2.74572425       0.00000000
Si       2.45638541       0.51063579       2.20724352       0.00000000
Si       1.06184737       1.25894823      -3.05366843       0.00000000
Si       0.99619867      -0.92665666       3.42135757       0.00000000
