10
Lattice="16.290000149 0.0 0.0 0.0 16.290000149 0.0 0.0 0.0 29.1751946751" Properties=species:S:1:pos:R:3:initial_magmoms:R:1 pbc="T T T"
Si      -1.38305359       1.34211682       1.33823700       0.00000000
Si      -1.36475992      -1.34190505      -1.37053395       0.00000000
Si       1.34522821       1.36883242      -1.36417375       0.00000000
Si       1.34099281      -1.36459702       1.37412249       0.00000000
Si      -2.67973760       2.64533312      -0.12276922       0.00000000
Si       2.66063758      -2.70000236      -0.03439755       0.00000000
Si       0.00501732       2.70112637       2.66888846       0.00000000
Si      -2.73263123      -0.04916322       2.68379698       0.00000000
Si       2.73249929       0.00772146       2.68913604       0.00000000
Si      -0.01751175      -2.68920209      -2.73759604       0.00000000
