10
Lattice="16.290000149 0.0 0.0 0.0 16.290000149 0.0 0.0 0.0 29.1751946751" Properties=species:S:1:pos:R:3:initial_magmoms:R:1 pbc="T T T"
Si       1.43268922      -1.22585509      -1.28613011       0.00000000
Si      -1.22129389       1.53451801      -1.24292164       0.00000000
Si       1.48621816       1.01560006       1.46905858       0.00000000
Si      -1.12293487      -1.44259354       1.54984469       0.00000000
H        2.07839225      -2.06970968      -0.20921532       0.00000000
Si      -1.99378199       0.34007004       2.83544964       0.00000000
Si      -0.12170259       1.80556733       2.99366673       0.00000000
Si       2.46770696      -0.84370798       2.36377427       0.00000000
Si      -0.00720018      -2.55601505      -2.49660893       0.00000000
Si       0.69998131      -2.32793876       2.69666324       0.00000000
