10
Lattice="16.290000149 0.0 0.0 0.0 16.290000149 0.0 0.0 0.0 29.1751946751" Properties=species:S:1:pos:R:3:initial_magmoms:R:1 pbc="T T T"
Si      -1.32724405       1.35892810       1.36612849       0.00000000
Si       1.37744983      -1.33985251       1.35880552       0.00000000
Si       1.41105610       1.40427946      -1.25753258       0.00000000
Si      -1.41980383      -1.42894252      -1.23577372       0.00000000
Si       0.07824087      -2.66456999      -2.51550863       0.00000000
Si       2.66859524       0.00333945      -2.62231610       0.00000000
Si      -2.66952377      -0.05870916      -2.64898222       0.00000000
Si       0.05118318       2.72288981       2.67098907       0.00000000
Si      -2.64435572       2.75032218       0.02450716       0.00000000
Si       0.09602955       2.66792735      -2.73001924       0.00000000
