10
Lattice="16.290000149 0.0 0.0 0.0 16.290000149 0.0 0.0 0.0 29.1751946751" Properties=species:S:1:pos:R:3:initial_magmoms:R:1 pbc="T T T"
Si       1.38926008      -1.34980570       1.32936775       0.00000000
Si       1.37588599       1.34860024      -1.34996543       0.00000000
Si      -1.31454761      -1.36581877      -1.39437008       0.00000000
Si      -1.36990756       1.33977106       1.37981166       0.00000000
Si      -2.66271455      -2.71959923      -0.03749013       0.00000000
Si       0.02922589      -2.70190829       2.68146297       0.00000000
Si      -2.70221780       2.70646624       0.00846081       0.00000000
Si       0.02977486       2.70953364      -2.70538663       0.00000000
Si      -2.68319108      -0.00895950      -2.73470770       0.00000000
Si       2.70767495      -2.71220357      -0.06106368       0.00000000
