10
Lattice="16.290000149 0.0 0.0 0.0 16.290000149 0.0 0.0 0.0 29.1751946751" Properties=species:S:1:pos:R:3:initial_magmoms:R:1 pbc="T T T"
Si       1.38746818      -1.34517934      -1.35813449       0.00000000
Si      -1.34974054      -1.38492694       1.35743428       0.00000000
Si       1.40968774       1.36326124       1.31880632       0.00000000
Si      -1.33170751       1.31579218      -1.44288843       0.00000000
Si      -2.68801292      -2.67341708      -0.07454262       0.00000000
Si       2.70171281      -0.04896774       2.67968328       0.00000000
H       -1.11154816       2.94366819       2.14110919       0.00000000
Si       0.07464078       2.43154316       2.93954674       0.00000000
Si       2.72784197       2.69004917      -0.12393623       0.00000000
Si       0.04373865      -2.67646331      -2.76262836       0.00000000
