10
Lattice="16.290000149 0.0 0.0 0.0 16.290000149 0.0 0.0 0.0 29.1751946751" Properties=species:S:1:pos:R:3:initial_magmoms:R:1 pbc="T T T"
Si      -1.37060803       1.34581465       1.33864546       0.00000000
Si      -1.38557854      -1.35003376      -1.32499147       0.00000000
Si       1.36272367      -1.36585135       1.33540701       0.00000000
Si       1.37047771       1.35834166      -1.33791608       0.00000000
Si       0.00772146       2.68112225       2.68341771       0.00000000
Si      -0.05523939      -2.76973497      -2.61085900       0.00000000
Si      -0.00135207      -2.71352144       2.68525574       0.00000000
Si       2.69772176      -0.00058644      -2.70404457       0.00000000
Si      -2.72033228      -0.01928736       2.69465016       0.00000000
Si       2.72191241      -0.02191005       2.69873468       0.00000000
