10
Lattice="16.290000149 0.0 0.0 0.0 16.290000149 0.0 0.0 0.0 29.1751946751" Properties=species:S:1:pos:R:3:initial_magmoms:R:1 pbc="T T T"
Si       1.30196197       1.29492469      -1.49782532       0.00000000
Si       1.26250759      -1.63981657       1.15644637       0.00000000
Si      -1.00954018       1.75130534       1.27460591       0.00000000
Si      -1.29803608      -1.67076758      -1.17555612       0.00000000
H        0.23516244      -2.75255391       1.36849168       0.00000000
H       -3.05315328      -1.03395889       0.35669593       0.00000000
H       -2.48422502      -1.15864255      -1.97399367       0.00000000
H       -0.29203083      -1.20441745       3.18604796       0.00000000
H       -1.85476313       0.49627485      -3.08428488       0.00000000
Si      -2.50854599       2.77117338      -0.24069536       0.00000000
