10
Lattice="16.290000149 0.0 0.0 0.0 16.290000149 0.0 0.0 0.0 29.1751946751" Properties=species:S:1:pos:R:3:initial_magmoms:R:1 pbc="T T T"
Si       0.84986560      -1.87698269      -1.11125399       0.00000000
Si       1.48766797       1.24864480       1.37908228       0.00000000
Si      -1.39189906       1.31649265      -1.43066402       0.00000000
Si      -1.30921102      -1.36792018       1.48869348       0.00000000
H        1.38267892      -1.62206047      -2.49838862       0.00000000
H        2.65057850       0.13608666      -2.07219738       0.00000000
Si       0.00742824       2.54724647       2.72035350       0.00000000
Si      -2.79487533       2.49114827       0.04924773       0.00000000
H       -0.20917989      -0.78076342      -3.67169825       0.00000000
Si       2.53923635      -2.80624575       0.20057946       0.00000000
