10
Lattice="16.290000149 0.0 0.0 0.0 16.290000149 0.0 0.0 0.0 29.1751946751" Properties=species:S:1:pos:R:3:initial_magmoms:R:1 pbc="T T T"
Si       1.32859612       1.01300995      -1.65038241       0.00000000
Si       1.44526510      -1.61745888       0.93168067       0.00000000
Si      -1.84318094      -1.18563671      -1.00561061       0.00000000
Si      -0.11432322       1.72794548       1.80089724       0.00000000
H       -2.27009297       1.47321874       0.48477503       0.00000000
Si       2.75048508       2.30409020      -0.26552345       0.00000000
Si       0.58280734       0.40037562       3.60558726       0.00000000
Si      -2.91579600       2.31707333      -0.59213975       0.00000000
Si       0.13940982      -3.06501240       2.19601690       0.00000000
Si       2.63282240      -0.50247483       2.66121538       0.00000000
