10
Lattice="16.290000149 0.0 0.0 0.0 16.290000149 0.0 0.0 0.0 29.1751946751" Properties=species:S:1:pos:R:3:initial_magmoms:R:1 pbc="T T T"
Si      -1.32040225      -1.34120458      -1.39397330       0.00000000
Si       1.35568639       1.31466817      -1.39937946       0.00000000
Si      -1.37898109       1.35878149       1.33607804       0.00000000
Si       1.35231436      -1.36721971       1.35667573       0.00000000
Si       2.69925302       2.68366349      -0.03565209       0.00000000
Si      -2.69461363      -2.70231554      -0.03241364       0.00000000
Si      -0.01866834       2.71318097       2.68936945       0.00000000
Si       0.09889659      -2.72303642      -2.67779273       0.00000000
Si       2.69943221      -0.01062108       2.71927402       0.00000000
Si      -0.01765836       2.66706398      -2.76000843       0.00000000
