10
Lattice="16.290000149 0.0 0.0 0.0 16.290000149 0.0 0.0 0.0 29.1751946751" Properties=species:S:1:pos:R:3:initial_magmoms:R:1 pbc="T T T"
Si       0.59789188       0.09181044       1.40119707       0.00000000
H        2.11524023      -0.75665422      -0.30167151       0.00000000
Si       1.39719331      -0.83642635      -1.62756741       0.00000000
Si      -0.47488608      -2.30192363      -1.78578449       0.00000000
Si      -1.11692386       0.53568036       2.92650543       0.00000000
H       -3.11780829      -0.63522856       0.74528035       0.00000000
Si       1.07502598      -1.93774439       2.46031499       0.00000000
Si       1.05549427       1.11381247      -3.00160238       0.00000000
H       -1.70986358      -2.66782961       1.19872122       0.00000000
Si       2.49551399       1.59086512       1.72051958       0.00000000
