10
Lattice="16.290000149 0.0 0.0 0.0 16.290000149 0.0 0.0 0.0 29.1751946751" Properties=species:S:1:pos:R:3:initial_magmoms:R:1 pbc="T T T"
Si      -1.41584536       1.21969747      -1.38141629       0.00000000
Si      -1.31129614      -1.48994857       1.27040468       0.00000000
Si       1.50612454      -1.33442794      -1.24904843       0.00000000
Si       0.65221903       1.88597477       1.29473679       0.00000000
Si       0.04839759       2.60130125      -2.59743841       0.00000000
Si       0.25133841      -2.56785788       2.63519111       0.00000000
Si      -2.75983554       2.51773355       0.04259578       0.00000000
Si       0.07061715      -2.74339893      -2.56625012       0.00000000
Si      -2.70663239      -0.18945270      -2.69861798       0.00000000
Si      -1.00281241       3.54732672       1.19046464       0.00000000
