10
Lattice="16.290000149 0.0 0.0 0.0 16.290000149 0.0 0.0 0.0 29.1751946751" Properties=species:S:1:pos:R:3:initial_magmoms:R:1 pbc="T T T"
H       -0.88277140       0.85014253      -0.89118550       0.00000000
Si       1.02931624      -1.48942729      -1.46926280       0.00000000
Si      -1.39321855      -1.23196384       1.42582094       0.00000000
Si       1.89680762       1.29956734       0.63377275       0.00000000
Si       1.94127932       0.34443576      -2.63764182       0.00000000
Si       0.01060479       1.83726767      -2.96043618       0.00000000
H       -2.78591583       0.42656994      -2.13349446       0.00000000
Si       2.14873247       0.78726313       2.93029470       0.00000000
Si       0.00635310      -2.65658951       2.64934108       0.00000000
Si       2.53643447      -2.79676497      -0.17697673       0.00000000
