10
Lattice="16.290000149 0.0 0.0 0.0 16.290000149 0.0 0.0 0.0 29.1751946751" Properties=species:S:1:pos:R:3:initial_magmoms:R:1 pbc="T T T"
Si      -1.41317380      -1.29463147      -1.34468093       0.00000000
Si      -1.38160378       1.35620767       1.32470555       0.00000000
Si       1.32079321       1.40330206      -1.34286594       0.00000000
Si       1.37143882      -1.41224527       1.30393281       0.00000000
Si       2.62537787       2.58732443       0.21013434       0.00000000
Si       2.66142764       0.04685004      -2.68565544       0.00000000
Si      -0.10598274      -2.72054405      -2.64521862       0.00000000
Si      -2.73474893      -0.04157208       2.64494438       0.00000000
Si      -2.69105915       0.20137698      -2.68407998       0.00000000
Si      -0.04445541       2.68091048       2.72946492       0.00000000
