10
Lattice="16.290000149 0.0 0.0 0.0 16.290000149 0.0 0.0 0.0 29.1751946751" Properties=species:S:1:pos:R:3:initial_magmoms:R:1 pbc="T T T"
Si       1.43826200      -1.35174421       1.28519650       0.00000000
Si      -1.25856541      -1.36721971      -1.45444180       0.00000000
Si       1.37852497       1.32794452      -1.38835999       0.00000000
Si      -1.43265664       1.28143657       1.40933695       0.00000000
Si       0.08861760      -2.75792961       2.59466676       0.00000000
Si      -0.03448593       2.69913737       2.66302424       0.00000000
Si      -2.69296508       2.67542727      -0.01843872       0.00000000
Si      -2.59613732      -2.81372286      -0.19699091       0.00000000
Si      -2.72769536      -0.30610539       2.69021553       0.00000000
Si      -2.64588698      -0.02381598      -2.80038106       0.00000000
