10
Lattice="16.290000149 0.0 0.0 0.0 16.290000149 0.0 0.0 0.0 29.1751946751" Properties=species:S:1:pos:R:3:initial_magmoms:R:1 pbc="T T T"
Si      -0.10831221       2.30573386       0.24232917       0.00000000
Si       1.59977575       0.07078005      -1.79269901       0.00000000
Si       0.29077650      -0.88268995       2.24164691       0.00000000
Si      -2.12799530      -0.97150303      -0.68004461       0.00000000
H        1.08996391      -2.75532321       0.05896307       0.00000000
H        2.52806141      -1.84854035       0.60036716       0.00000000
Si      -1.86383666       1.98034763       1.72670472       0.00000000
Si      -1.90785224      -0.16423578       2.70859590       0.00000000
Si       3.17839080      -1.01419912      -0.46902043       0.00000000
Si      -1.04611123      -2.39233313      -2.17819086       0.00000000
