10
Lattice="16.290000149 0.0 0.0 0.0 16.290000149 0.0 0.0 0.0 29.1751946751" Properties=species:S:1:pos:R:3:initial_magmoms:R:1 pbc="T T T"
Si      -1.34692237      -1.33263604      -1.38887055       0.00000000
Si      -1.34381098       1.30334662       1.42366197       0.00000000
Si       1.30336291       1.35369901      -1.43380035       0.00000000
Si       1.34829073      -1.38479662       1.36181056       0.00000000
Si       2.69376981       2.64108143       0.00058350       0.00000000
Si      -2.69006546       2.64824903       0.05826286       0.00000000
Si       2.66370499      -0.10428858      -2.72112956       0.00000000
Si      -2.68842017      -2.75084346      -0.02905849       0.00000000
Si       0.01350441       2.65160477       2.79119087       0.00000000
Si       2.71264178      -0.05452263       2.74042604       0.00000000
