10
Lattice="16.290000149 0.0 0.0 0.0 16.290000149 0.0 0.0 0.0 29.1751946751" Properties=species:S:1:pos:R:3:initial_magmoms:R:1 pbc="T T T"
Si      -1.19524618      -0.36572679      -0.89281931       0.00000000
H        1.40794471      -2.03260106       0.45344088       0.00000000
Si      -0.34371900       1.11345409      -2.52902258       0.00000000
Si       0.08089614       2.92941444      -1.04552228       0.00000000
Si      -1.97131645      -2.48134169       0.28851350       0.00000000
Si       2.00088443       1.17090892       2.18122508       0.00000000
Si      -1.45134127      -1.57434706       2.37947053       0.00000000
Si       0.60777991      -0.56790199       3.09723867       0.00000000
Si      -0.65482543      -2.74537002      -1.62094464       0.00000000
H        3.11780829       0.63522856      -0.74528035       0.00000000
