10
Lattice="16.290000149 0.0 0.0 0.0 16.290000149 0.0 0.0 0.0 29.1751946751" Properties=species:S:1:pos:R:3:initial_magmoms:R:1 pbc="T T T"
Si       1.29728674       1.28383413       1.50596228       0.00000000
Si      -1.33592662      -1.36472278       1.40786944       0.00000000
Si       1.48023973      -1.29860167      -1.34127122       0.00000000
Si      -1.35550720       1.38658331      -1.39871718       0.00000000
Si      -0.00742824      -2.54724647      -2.72035350       0.00000000
Si      -2.60845256       2.72869362       0.08733740       0.00000000
Si       2.69521310      -2.71324157       0.10955402       0.00000000
Si       2.28517751       3.07083249       0.35269601       0.00000000
Si       2.36719766       2.37810023      -1.87692780       0.00000000
Si       3.09754353       0.18830067      -2.27951631       0.00000000
