10
Lattice="16.290000149 0.0 0.0 0.0 16.290000149 0.0 0.0 0.0 29.1751946751" Properties=species:S:1:pos:R:3:initial_magmoms:R:1 pbc="T T T"
Si       1.27869496      -1.37286583       1.38731843       0.00000000
Si      -1.34747053      -1.21483784      -1.47993217       0.00000000
Si      -1.43293300       1.30749080       1.35101866       0.00000000
Si       1.33561223       1.40646884      -1.35335413       0.00000000
Si      -1.63469011       0.61330873      -3.04462704       0.00000000
Si      -0.29895245       2.59084959      -2.56431581       0.00000000
Si       2.60813817      -2.68694756      -0.03282209       0.00000000
Si      -2.82594524      -2.52095246      -0.10796281       0.00000000
Si      -0.07073933       2.70259899       2.66939319       0.00000000
Si       2.57976099      -0.04533344       2.81249752       0.00000000
