10
Lattice="16.290000149 0.0 0.0 0.0 16.290000149 0.0 0.0 0.0 29.1751946751" Properties=species:S:1:pos:R:3:initial_magmoms:R:1 pbc="T T T"
Si      -0.73034587       2.18979956       0.40258851       0.00000000
Si       1.90110818       0.54827742       1.28540073       0.00000000
Si      -1.61730379      -1.48690234       0.93824509       0.00000000
Si       0.73005265       0.34477297      -2.26268222       0.00000000
H        1.44875116      -2.17588790      -1.27072560       0.00000000
H        1.72284671       1.93647377       1.89475384       0.00000000
Si       2.53741187       1.67202191      -1.65157860       0.00000000
Si       1.20627451       3.22023981      -0.49769965       0.00000000
H       -0.45439326      -2.59946048      -2.51303457       0.00000000
Si      -0.40233042      -2.90154225       2.38907033       0.00000000
