10
Lattice="16.290000149 0.0 0.0 0.0 16.290000149 0.0 0.0 0.0 29.1751946751" Properties=species:S:1:pos:R:3:initial_magmoms:R:1 pbc="T T T"
Si      -0.65415754       0.42432192      -2.13134717       0.00000000
Si      -1.90744499      -0.79070032       1.12190002       0.00000000
Si       0.85810834       1.93593620       1.04086300       0.00000000
Si       1.70512319      -1.66840553      -0.12737657       0.00000000
H       -1.21106377      -2.61830801      -0.80209612       0.00000000
Si       2.17313489       0.67228831       2.51334966       0.00000000
Si      -0.65772505      -2.16093368       2.53510852       0.00000000
Si       3.43067403      -0.72865171       1.14856615       0.00000000
Si       0.84031966      -3.39656114       1.25537362       0.00000000
Si      -2.35502903       2.02219175      -2.14774363       0.00000000
