10
Lattice="16.290000149 0.0 0.0 0.0 16.290000149 0.0 0.0 0.0 29.1751946751" Properties=species:S:1:pos:R:3:initial_magmoms:R:1 pbc="T T T"
H       -1.18304497      -0.53574552      -1.05129897       0.00000000
Si      -1.53736876       1.27146709       1.19778762       0.00000000
Si       1.13997421      -1.50133528       1.38308220       0.00000000
Si       1.66987163       0.78649750      -1.44484317       0.00000000
Si      -2.47870271      -1.08631495      -1.97338099       0.00000000
Si       3.08402283      -1.16212861      -1.44513492       0.00000000
Si      -0.14152752       2.59296077       2.56225896       0.00000000
Si       2.64711362      -0.11662011       2.54965819       0.00000000
Si       2.77947476       2.49321710      -0.19821627       0.00000000
Si       2.40349830      -2.92931670       0.05800029       0.00000000
