10
Lattice="16.290000149 0.0 0.0 0.0 16.290000149 0.0 0.0 0.0 29.1751946751" Properties=species:S:1:pos:R:3:initial_magmoms:R:1 pbc="T T T"
H       -1.18618894       0.51212502      -0.79843755       0.00000000
Si       1.33504696      -1.06828192      -1.62074041       0.00000000
H       -1.75511720       0.63680869       1.53225205       0.00000000
Si       1.29803608       1.67076758       1.17555612       0.00000000
Si      -0.69261823      -1.85787452       1.42179476       0.00000000
H       -0.55672705       2.16704243      -1.90872876       0.00000000
H        1.53319852      -1.08178633       2.54404780       0.00000000
Si      -3.06651108       1.10017774       0.92715851       0.00000000
H       -1.99482455       1.26025957      -2.45013285       0.00000000
Si       2.56054367       0.03095100       2.33200249       0.00000000
