10
Lattice="16.290000149 0.0 0.0 0.0 16.290000149 0.0 0.0 0.0 29.1751946751" Properties=species:S:1:pos:R:3:initial_magmoms:R:1 pbc="T T T"
Si      -1.34964440      -1.40618539       1.30947026       0.00000000
Si       1.33939642      -1.36199062      -1.37190518       0.00000000
Si      -1.43826200       1.35174421      -1.28519650       0.00000000
Si       1.38157286       1.35713620       1.35445841       0.00000000
Si      -2.58734232      -0.03934035       2.72869761       0.00000000
Si      -0.05973703       2.67968873      -2.67355649       0.00000000
Si      -0.00527736       2.75255586       2.64117202       0.00000000
Si       2.70953042      -2.70275537      -0.01298296       0.00000000
Si       2.69943062      -0.00988803      -2.72400040       0.00000000
Si      -0.02774347      -2.78221800       2.64333099       0.00000000
