10
Lattice="16.290000149 0.0 0.0 0.0 16.290000149 0.0 0.0 0.0 29.1751946751" Properties=species:S:1:pos:R:3:initial_magmoms:R:1 pbc="T T T"
Si      -1.37044513       1.36078028      -1.31329221       0.00000000
Si      -1.38746818      -1.35936793       1.30398533       0.00000000
Si       1.32382315      -1.35174421      -1.38459639       0.00000000
Si       1.35565381       1.37176136       1.33797443       0.00000000
Si      -0.00495216      -2.70532919       2.63962574       0.00000000
Si      -0.02461419       2.69094512      -2.66029636       0.00000000
Si       2.67377546       0.04336732      -2.69497984       0.00000000
Si      -2.70518258       0.01109349       2.69298717       0.00000000
Si       2.73838160       0.01242927       2.65981497       0.00000000
Si      -0.00412137       2.72921034       2.67734927       0.00000000
