10
Lattice="16.290000149 0.0 0.0 0.0 16.290000149 0.0 0.0 0.0 29.1751946751" Properties=species:S:1:pos:R:3:initial_magmoms:R:1 pbc="T T T"
Si       1.29078703       1.40915017       1.31720169       0.00000000
Si      -1.32190093       1.37603260      -1.33386073       0.00000000
Si       1.40558103      -1.31737231      -1.31361314       0.00000000
Si      -1.31815423      -1.32678793       1.44274255       0.00000000
Si      -2.55959885       2.74287765       0.08536662       0.00000000
Si       0.01407456      -2.68969079      -2.62862669       0.00000000
Si       2.77724955      -2.55394622       0.13236786       0.00000000
Si      -2.70997184       0.01702305      -2.66451218       0.00000000
Si       2.73727389       0.07946262      -2.65631395       0.00000000
Si       2.70663239       0.18945270       2.69861798       0.00000000
