10
Lattice="16.290000149 0.0 0.0 0.0 16.290000149 0.0 0.0 0.0 29.1751946751" Properties=species:S:1:pos:R:3:initial_magmoms:R:1 pbc="T T T"
Si       1.37306782       1.38427534       1.30865336       0.00000000
Si       1.37158543      -1.33982319      -1.36496148       0.00000000
Si      -1.32354622       1.36487395      -1.39186101       0.00000000
Si      -1.36759438      -1.35903562       1.37631063       0.00000000
Si      -2.67403610      -2.67388949      -0.06829913       0.00000000
Si       2.67748958       0.00309510       2.68146297       0.00000000
Si      -2.68323995       2.71627607      -0.03795693       0.00000000
Si       2.70389567      -2.70651836       0.00638937       0.00000000
Si      -2.69112431       0.03492576       2.74173892       0.00000000
Si      -2.68273496       0.02093265      -2.75518868       0.00000000
