10
Lattice="16.290000149 0.0 0.0 0.0 16.290000149 0.0 0.0 0.0 29.1751946751" Properties=species:S:1:pos:R:3:initial_magmoms:R:1 pbc="T T T"
Si       0.47732958      -0.42929037       2.21045862       0.00000000
Si       1.83246212       1.28897884      -0.63590254       0.00000000
Si      -1.65503144       1.66135196      -0.10427215       0.00000000
Si      -0.65221903      -1.88597477      -1.29473679       0.00000000
H        1.83738170       0.14009400       2.48365515       0.00000000
Si       0.79967611       2.11414880      -2.59026131       0.00000000
Si      -2.06806439      -0.66627730      -2.67615308       0.00000000
Si      -3.41205456       0.63175879      -1.25214101       0.00000000
Si      -0.74318239       3.38936259      -1.40224738       0.00000000
Si       3.65902725      -0.16630461      -0.80243455       0.00000000
