10
Lattice="16.290000149 0.0 0.0 0.0 16.290000149 0.0 0.0 0.0 29.1751946751" Properties=species:S:1:pos:R:3:initial_magmoms:R:1 pbc="T T T"
Si       1.32543586       1.33619899       1.33670822       0.00000000
Si      -1.41672502       1.34293979      -1.25497683       0.00000000
Si       1.23149143      -1.20230920      -1.59495538       0.00000000
Si      -1.46018674      -1.43729245       1.21411406       0.00000000
Si      -2.45638541      -0.51063579      -2.20724352       0.00000000
Si      -0.71070013      -2.05404815      -2.65644582       0.00000000
Si       2.62450367       2.62613406      -0.13597391       0.00000000
Si       2.64204645      -0.09921555       2.61259784       0.00000000
Si       2.53324163      -2.73184247      -0.27794916       0.00000000
Si      -0.11751606       2.66765727       2.61933731       0.00000000
