10
Lattice="16.290000149 0.0 0.0 0.0 16.290000149 0.0 0.0 0.0 29.1751946751" Properties=species:S:1:pos:R:3:initial_magmoms:R:1 pbc="T T T"
Si      -1.40151586       1.17017587      -1.46153138       0.00000000
Si      -1.45954084      -1.17908650       1.41614061       0.00000000
Si       1.46146144      -1.27883017      -1.34433462       0.00000000
Si       1.22058446       1.48931326       1.39791195       0.00000000
H       -2.30175014       1.91373293      -0.48387060       0.00000000
Si       2.65181084       0.41472711      -2.53631637       0.00000000
Si      -0.07148622      -2.53946441       2.77239913       0.00000000
Si      -2.85538209      -2.50058018       0.05166927       0.00000000
Si       2.60584046       0.14955849       2.76980546       0.00000000
Si      -0.25052961       2.80960149      -2.64461470       0.00000000
