10
Lattice="16.290000149 0.0 0.0 0.0 16.290000149 0.0 0.0 0.0 29.1751946751" Properties=species:S:1:pos:R:3:initial_magmoms:R:1 pbc="T T T"
Si      -1.36219368      -1.39510819      -1.31837453       0.00000000
Si       1.29401571      -1.35288451       1.43209361       0.00000000
Si      -1.35062998       1.32636439       1.40656531       0.00000000
Si       1.37421138       1.36111096      -1.36155966       0.00000000
Si      -2.66126149      -2.68504326       0.15430760       0.00000000
Si      -2.81306800      -0.01039302      -2.54418492       0.00000000
Si       0.07073933      -2.70259899      -2.66939319       0.00000000
Si       2.69461363       2.70231554       0.03241364       0.00000000
Si       2.65050031      -2.74793243       0.14310433       0.00000000
Si      -2.68049998       2.73561231       0.09589886       0.00000000
