10
Lattice="16.290000149 0.0 0.0 0.0 16.290000149 0.0 0.0 0.0 29.1751946751" Properties=species:S:1:pos:R:3:initial_magmoms:R:1 pbc="T T T"
Si      -1.36844146      -1.34438113       1.34226318       0.00000000
Si      -1.38251602       1.34596126      -1.33564041       0.00000000
Si       1.34991973      -1.36516717      -1.35547954       0.00000000
Si       1.36695907       1.36177885       1.35221192       0.00000000
Si       0.00495216       2.70532919      -2.63962574       0.00000000
Si      -0.00180819      -2.70089831       2.67148505       0.00000000
Si       2.71349048      -0.00332316      -2.68493482       0.00000000
Si      -2.70884783      -2.70651836      -0.02319428       0.00000000
Si      -2.70023042       2.71642268       0.05336143       0.00000000
Si      -2.68685633       0.01801674       2.73269461       0.00000000
