10
Lattice="16.290000149 0.0 0.0 0.0 16.290000149 0.0 0.0 0.0 29.1751946751" Properties=species:S:1:pos:R:3:initial_magmoms:R:1 pbc="T T T"
Si      -1.32859612      -1.01300995       1.65038241       0.00000000
Si       1.22952034      -1.42835771      -1.41744766       0.00000000
Si      -1.35268903       1.31287627      -1.42126961       0.00000000
Si       1.42188895       1.29108025       1.38485897       0.00000000
Si       0.11666898      -2.63046882       2.58206308       0.00000000
Si      -0.05473440       2.53961102       2.70025179       0.00000000
Si       2.73450898       2.64386702      -0.03947404       0.00000000
Si      -1.44291934       0.71493553       3.45127965       0.00000000
Si      -2.74133010       2.66507660      -0.10255081       0.00000000
Si       2.61612515      -0.08993709      -2.79375829       0.00000000
