10
Lattice="16.290000149 0.0 0.0 0.0 16.290000149 0.0 0.0 0.0 29.1751946751" Properties=species:S:1:pos:R:3:initial_magmoms:R:1 pbc="T T T"
H        1.98334010      -0.09332541      -1.05672555       0.00000000
Si       1.02359845      -1.33550308       1.61896073       0.00000000
Si       0.76049866       1.87225859      -1.28070352       0.00000000
Si      -0.77564836      -2.03869352      -1.00911163       0.00000000
Si      -1.07134444       1.10913724       1.86727081       0.00000000
H       -1.22197807       1.25017606      -2.36365757       0.00000000
H       -3.01928637       0.04160466      -1.27921559       0.00000000
H       -1.87260068       1.67334140      -2.40672016       0.00000000
H        2.31925619      -0.78493366       2.54104276       0.00000000
Si      -1.02118753       3.41834250      -0.65046097       0.00000000
