10
Lattice="16.290000149 0.0 0.0 0.0 16.290000149 0.0 0.0 0.0 29.1751946751" Properties=species:S:1:pos:R:3:initial_magmoms:R:1 pbc="T T T"
Si      -1.41527521      -1.32514264       1.23939144       0.00000000
Si       1.36216981      -1.36964692      -1.26232315       0.00000000
Si       1.23061177       1.13797054       1.62488329       0.00000000
Si      -1.39569463       1.45078741      -1.19236103       0.00000000
Si      -0.36916398       1.06719049       3.41758230       0.00000000
Si       2.69974172       0.07685622      -2.51977404       0.00000000
Si      -2.49715928       0.09568746       2.73753769       0.00000000
Si      -0.05732451      -2.68001453      -2.57622804       0.00000000
Si       2.52565049       2.72551250       0.34400472       0.00000000
Si      -0.12176775      -2.62112618       2.66480393       0.00000000
