10
Lattice="16.290000149 0.0 0.0 0.0 16.290000149 0.0 0.0 0.0 29.1751946751" Properties=species:S:1:pos:R:3:initial_magmoms:R:1 pbc="T T T"
Si       1.37035880       1.36902790       1.32478724       0.00000000
Si      -1.32519151       1.38364003      -1.35982665       0.00000000
Si       1.38015071      -1.34824023      -1.34068772       0.00000000
Si      -1.35184195      -1.35130764       1.37315971       0.00000000
Si      -2.68381010      -2.70629030      -0.00971534       0.00000000
Si      -2.69371442       0.03486060      -2.69771355       0.00000000
Si       0.00433314       2.72039744       2.67370237       0.00000000
Si       2.69904125       0.00827532       2.69847211       0.00000000
Si       2.70451469       0.03556107      -2.70255663       0.00000000
Si      -2.69089625       2.73069272      -0.00977369       0.00000000
