10
Lattice="16.290000149 0.0 0.0 0.0 16.290000149 0.0 0.0 0.0 29.1751946751" Properties=species:S:1:pos:R:3:initial_magmoms:R:1 pbc="T T T"
Si       2.07624197      -0.73629823       0.84222952       0.00000000
Si       0.77227633       0.57591504      -2.16879645       0.00000000
Si      -1.27157623      -2.00313408      -0.11325811       0.00000000
Si      -0.56785312       1.50566679       1.78986902       0.00000000
H        0.72202168       1.53570555       2.59738006       0.00000000
H       -2.27961122       0.10028613      -2.33993814       0.00000000
H        0.26358849       1.91812960      -2.64365192       0.00000000
Si      -0.04794147       3.49834106       0.08349941       0.00000000
Si       1.31870809      -2.24165226       2.55965653       0.00000000
Si       3.14235732      -1.41374558      -1.21867706       0.00000000
