10
Lattice="16.28999089631971 0.0 0.0 0.0 16.28999089631971 0.0 0.0 0.0 34.40785480372833" Properties=species:S:1:pos:R:3:initial_magmoms:R:1 pbc="T T T"
Si       0.73627868      -1.55551581       1.61624107       0.00000000
Si      -1.68914498       1.28575341       1.07803310       0.00000000
Si       2.18071461       0.57539538      -0.94587246       0.00000000
Si      -2.24313530      -0.95970906      -0.72032884       0.00000000
Si       0.99835708       1.55795931      -2.63330342       0.00000000
Si      -1.34751110      -1.61349192      -2.72118113       0.00000000
Si      -1.37711003      -2.35390500       2.42723466       0.00000000
Si      -1.38106850       0.90793944       3.36887495       0.00000000
Si       1.11864407      -3.58309953       0.25620103       0.00000000
Si      -0.84582797       3.44185450       1.33688354       0.00000000
