10
Lattice="16.28999089631971 0.0 0.0 0.0 16.28999089631971 0.0 0.0 0.0 34.40785480372833" Properties=species:S:1:pos:R:3:initial_magmoms:R:1 pbc="T T T"
Si       1.93166820      -0.63622224       1.15321431       0.00000000
Si       0.46522611       2.32022121       0.17685647       0.00000000
Si       0.89182863      -0.55635237      -2.17784639       0.00000000
Si      -2.15137862      -0.47545623       1.04995628       0.00000000
Si      -2.13792308      -2.61897588      -0.00189243       0.00000000
Si       2.76467364       0.84856239      -2.13187747       0.00000000
Si       1.84666698       0.81968022       2.97800150       0.00000000
Si      -1.64133788       3.39648848      -0.01672223       0.00000000
Si      -2.52332819       0.39910500      -2.86091150       0.00000000
Si       1.90711917       2.95851554      -1.57268070       0.00000000
