10
Lattice="16.28999089631971 0.0 0.0 0.0 16.28999089631971 0.0 0.0 0.0 34.40785480372833" Properties=species:S:1:pos:R:3:initial_magmoms:R:1 pbc="T T T"
Si      -1.35044100      -1.35682016       1.39506725       0.00000000
Si       1.36365219       1.35759231       1.39503284       0.00000000
Si       1.40603877      -1.41588119      -1.31291845       0.00000000
Si      -1.15588953       1.23074208      -2.05007275       0.00000000
Si      -2.68051950       2.68064982       0.05478078       0.00000000
Si      -2.72008791      -2.70781810       0.01862498       0.00000000
Si       2.72212416       2.71135647       0.00426314       0.00000000
Si      -2.70821250      -0.00490329       2.75930505       0.00000000
Si       2.55337605       0.03570768      -2.90403975       0.00000000
Si       0.00941562       2.71049310       2.76009643       0.00000000
