10
Lattice="16.28999089631971 0.0 0.0 0.0 16.28999089631971 0.0 0.0 0.0 34.40785480372833" Properties=species:S:1:pos:R:3:initial_magmoms:R:1 pbc="T T T"
Si      -1.34513046      -1.34656398      -1.36637109       0.00000000
Si       1.36775727       1.37759643      -1.35900780       0.00000000
Si      -1.63919754       1.05290415       1.35095636       0.00000000
Si       1.45508796      -1.29301875       1.38711903       0.00000000
Si       0.29286162       1.96784829       2.53682374       0.00000000
Si       2.29164462       0.47873052       2.66437373       0.00000000
Si      -2.70155478      -2.67853538       0.00529881       0.00000000
Si       0.00632052      -2.69621329      -2.72176606       0.00000000
Si      -2.70631634       0.01625742      -2.71825646       0.00000000
Si       2.72372058       0.01555695      -2.72008007       0.00000000
