10
Lattice="16.28999089631971 0.0 0.0 0.0 16.28999089631971 0.0 0.0 0.0 34.40785480372833" Properties=species:S:1:pos:R:3:initial_magmoms:R:1 pbc="T T T"
Si      -1.31577588      -0.24426124       1.93902133       0.00000000
Si       0.34971372      -2.20873750      -0.80135939       0.00000000
Si       2.06325882       0.99608121       0.73109851       0.00000000
Si      -0.86294646       0.98035810      -2.02978930       0.00000000
Si       2.59522506      -2.20135813      -1.58541161       0.00000000
Si      -2.17333035       1.86569191       2.49821810       0.00000000
Si       3.20939064       1.60023007      -1.30977013       0.00000000
Si      -0.66951900      -0.65556745      -3.76931378       0.00000000
Si       0.03451851      -3.83361613       0.88132329       0.00000000
Si      -0.99953811      -2.76942301      -2.69829989       0.00000000
