10
Lattice="16.28999089631971 0.0 0.0 0.0 16.28999089631971 0.0 0.0 0.0 34.40785480372833" Properties=species:S:1:pos:R:3:initial_magmoms:R:1 pbc="T T T"
Si      -1.70527697       0.99535158      -1.34992412       0.00000000
Si       1.00513698      -1.70377436      -1.35326169       0.00000000
Si      -1.84265054      -1.18688940       1.18049975       0.00000000
Si       2.06749422       2.02766517      -0.00760414       0.00000000
Si       1.46601855       0.05758515       3.04657639       0.00000000
Si      -0.66537224      -1.11485502       3.22422424       0.00000000
Si      -0.36715355       2.35890603      -2.72162843       0.00000000
Si       2.36156130      -0.37180296      -2.72493158       0.00000000
Si       2.47524921      -2.99308290      -0.03451110       0.00000000
Si      -3.06200591       2.39239827       0.10473757       0.00000000
