10
Lattice="16.28999089631971 0.0 0.0 0.0 16.28999089631971 0.0 0.0 0.0 34.40785480372833" Properties=species:S:1:pos:R:3:initial_magmoms:R:1 pbc="T T T"
Si      -1.42322146      -1.29487583       1.31235072       0.00000000
Si       1.24716240      -1.45259561      -1.32707729       0.00000000
Si      -1.47011223       1.28930854      -1.31875059       0.00000000
Si       1.79839971       0.96477101       1.35044024       0.00000000
Si       2.60830593      -2.64078821       0.22568125       0.00000000
Si       2.59546941      -0.08951917      -2.68364214       0.00000000
Si      -0.11368791       2.62127994      -2.69042049       0.00000000
Si      -0.24086394      -2.27743976       2.99978168       0.00000000
Si       2.68653051       2.67482517       0.06306963       0.00000000
Si      -2.72694910      -2.70743060      -0.02449841       0.00000000
