10
Lattice="16.28999089631971 0.0 0.0 0.0 16.28999089631971 0.0 0.0 0.0 34.40785480372833" Properties=species:S:1:pos:R:3:initial_magmoms:R:1 pbc="T T T"
Si      -1.86442308       0.34764489       1.34496939       0.00000000
Si       0.04178385      -2.10214305      -0.99387144       0.00000000
Si       1.99308150       0.06876009       1.32783427       0.00000000
Si      -0.53708130       1.43715267      -1.87526354       0.00000000
Si       2.19419784      -1.49718132      -1.97208730       0.00000000
Si      -1.19920464       2.38265685       2.21597031       0.00000000
Si      -3.60290817       0.18352314      -0.24742702       0.00000000
Si       3.42551007      -1.22192919       0.01218039       0.00000000
Si       2.28913596       2.40930729       1.49368022       0.00000000
Si      -2.84640057       1.39975083      -2.14994160       0.00000000
