10
Lattice="16.28999089631971 0.0 0.0 0.0 16.28999089631971 0.0 0.0 0.0 34.40785480372833" Properties=species:S:1:pos:R:3:initial_magmoms:R:1 pbc="T T T"
Si       1.72535535      -0.42512013      -1.62759567       0.00000000
Si      -0.71478891       2.22633801       0.67033420       0.00000000
Si      -2.02370670      -0.36600372      -1.32367091       0.00000000
Si       0.47845359      -1.33250571       2.05139745       0.00000000
Si      -1.36704051      -2.53908972      -2.07407224       0.00000000
Si      -0.31219785       1.81169235       3.17835855       0.00000000
Si       0.87071679      -2.24557650      -2.88596043       0.00000000
Si      -1.91233197       1.29205764      -3.10045912       0.00000000
Si       0.13866048       3.75877089      -0.95671094       0.00000000
Si       3.61255185      -1.36104579      -0.55558394       0.00000000
