10
Lattice="16.28999089631971 0.0 0.0 0.0 16.28999089631971 0.0 0.0 0.0 34.40785480372833" Properties=species:S:1:pos:R:3:initial_magmoms:R:1 pbc="T T T"
Si       0.74230272      -2.21144895      -0.06802437       0.00000000
Si      -2.08990926      -0.14757111       1.04754772       0.00000000
Si       1.34389242       0.97963173       1.74138250       0.00000000
Si      -0.05670549       0.37869363      -2.42984966       0.00000000
Si      -1.22390028      -3.06833553      -1.04672194       0.00000000
Si       0.68199714       2.61879669      -2.27078205       0.00000000
Si      -3.07648053      -1.85533326      -0.25300110       0.00000000
Si       3.40469145       1.22253192       0.60647319       0.00000000
Si       2.70270648      -2.16420795      -1.33712439       0.00000000
Si       1.23939207      -2.83815783       2.13755477       0.00000000
