10
Lattice="16.28999089631971 0.0 0.0 0.0 16.28999089631971 0.0 0.0 0.0 34.40785480372833" Properties=species:S:1:pos:R:3:initial_magmoms:R:1 pbc="T T T"
Si       0.96629022       1.70461818      -1.28386242       0.00000000
Si      -1.30411224       1.35868374       1.43524533       0.00000000
Si       1.41319008      -1.35444834       1.41798978       0.00000000
Si      -2.01614814      -0.77227632      -1.21908027       0.00000000
Si      -0.67463406       3.40693947      -1.05747302       0.00000000
Si      -2.56991040      -2.62032795       0.12933920       0.00000000
Si       1.38847815       0.57037806      -3.36282058       0.00000000
Si       2.82898656      -2.54482380      -0.08775040       0.00000000
Si      -2.69092881       2.74395276      -0.03730846       0.00000000
Si      -2.65632885       0.00011403       2.79692662       0.00000000
