10
Lattice="16.28999089631971 0.0 0.0 0.0 16.28999089631971 0.0 0.0 0.0 34.40785480372833" Properties=species:S:1:pos:R:3:initial_magmoms:R:1 pbc="T T T"
Si       0.96565491       1.75777964       1.17220745       0.00000000
Si      -1.61751555       0.88236414      -1.44860590       0.00000000
Si      -1.92396303      -0.72516564       1.16119693       0.00000000
Si       1.76334363      -1.34311050      -1.20314013       0.00000000
Si       0.79957836       0.39599361       3.02891074       0.00000000
Si      -3.38704938       0.77700042       0.13666808       0.00000000
Si       2.97282726       1.94172957      -0.14124432       0.00000000
Si      -1.53251433      -0.57353832      -3.27339310       0.00000000
Si       2.86269057      -2.44056780       0.72356318       0.00000000
Si       3.25524699       0.33078474      -2.05456297       0.00000000
