10
Lattice="16.28999089631971 0.0 0.0 0.0 16.28999089631971 0.0 0.0 0.0 34.40785480372833" Properties=species:S:1:pos:R:3:initial_magmoms:R:1 pbc="T T T"
Si       2.31254469       0.02951748       0.12101249       0.00000000
Si      -0.42218793       1.13424012       2.07895816       0.00000000
Si      -0.16768926      -2.41372188      -0.04311307       0.00000000
Si      -1.09934694       1.09745730      -1.92670331       0.00000000
Si       1.35167904      -2.56355730      -2.01028004       0.00000000
Si      -2.13666156      -2.59020774      -1.28798995       0.00000000
Si      -1.38847815      -0.57037806       3.36282058       0.00000000
Si      -2.15927208      -0.81793719      -2.90946101       0.00000000
Si       2.80192887      -1.57832181       1.87536677       0.00000000
Si      -2.86269057       2.44056780      -0.72356318       0.00000000
