10
Lattice="16.28999089631971 0.0 0.0 0.0 16.28999089631971 0.0 0.0 0.0 34.40785480372833" Properties=species:S:1:pos:R:3:initial_magmoms:R:1 pbc="T T T"
Si       1.49190336       1.67389524      -0.85142284       0.00000000
Si      -1.05992514      -1.91539449      -0.98275770       0.00000000
Si       1.09934694      -1.09745730       1.92670331       0.00000000
Si      -1.76334363       1.34311050       1.20314013       0.00000000
Si       1.20948363       3.28484007       1.06189581       0.00000000
Si       0.20675268      -2.42276283      -2.87233492       0.00000000
Si       0.37747188       2.66902595      -2.70198153       0.00000000
Si       2.37464217      -2.24722179      -2.01251655       0.00000000
Si      -1.03731462      -3.68766504       0.63871337       0.00000000
Si      -1.34423451       1.22694651      -3.49487658       0.00000000
