10
Lattice="16.28999089631971 0.0 0.0 0.0 16.28999089631971 0.0 0.0 0.0 34.40785480372833" Properties=species:S:1:pos:R:3:initial_magmoms:R:1 pbc="T T T"
Si      -1.33229394      -1.36636140      -1.36240386       0.00000000
Si      -1.35488817       1.35560819       1.35677129       0.00000000
Si       1.36000323      -1.35619741       1.35800997       0.00000000
Si       1.34389242       1.36745102      -1.37765343       0.00000000
Si       2.65877235      -0.07656789      -2.69005920       0.00000000
Si      -2.67493203      -0.05391990      -2.71483287       0.00000000
Si      -2.71397916       0.00001629       2.71464363       0.00000000
Si       0.00148239      -2.71523742       2.71471245       0.00000000
Si       0.00123804       2.71528562       2.71509093       0.00000000
Si      -2.71581993      -2.71479759      -0.00185803       0.00000000
