10
Lattice="16.28999089631971 0.0 0.0 0.0 16.28999089631971 0.0 0.0 0.0 34.40785480372833" Properties=species:S:1:pos:R:3:initial_magmoms:R:1 pbc="T T T"
Si      -1.32805854      -1.35275581       1.37844825       0.00000000
Si       1.35659862      -1.35423820      -1.35880135       0.00000000
Si      -1.35553977       1.35811359      -1.35911102       0.00000000
Si       1.35262386       1.35347094       1.37118819       0.00000000
Si      -2.62417239       0.04953789       2.74808808       0.00000000
Si       2.71292031      -2.71143750       0.00289026       0.00000000
Si       0.00120546      -2.71324786      -2.71553823       0.00000000
Si      -2.71523349      -2.71480645       0.00137631       0.00000000
Si      -2.71412577       0.00076563      -2.71694896       0.00000000
Si      -2.71150308       2.72015307       0.00196125       0.00000000
