10
Lattice="16.28999089631971 0.0 0.0 0.0 16.28999089631971 0.0 0.0 0.0 34.40785480372833" Properties=species:S:1:pos:R:3:initial_magmoms:R:1 pbc="T T T"
Si       1.17410175       1.85306895      -0.74468962       0.00000000
Si       1.14091902      -1.86624267      -0.76337309       0.00000000
Si       0.64490481      -0.24949764       2.30305664       0.00000000
Si      -2.00785653       0.03556107      -1.44320387       0.00000000
Si      -0.41414067       3.23534061       0.32185125       0.00000000
Si      -0.92277963      -3.05331745      -0.76650421       0.00000000
Si      -1.85404635      -1.99244782      -2.69207206       0.00000000
Si      -1.56151053       1.70562816      -3.09780971       0.00000000
Si       2.19361140      -2.12880652       2.37273259       0.00000000
Si      -2.39275665      -2.81812113       1.16921397       0.00000000
