10
Lattice="16.28999089631971 0.0 0.0 0.0 16.28999089631971 0.0 0.0 0.0 34.40785480372833" Properties=species:S:1:pos:R:3:initial_magmoms:R:1 pbc="T T T"
Si       1.35790182       1.34389242       1.38870868       0.00000000
Si      -1.35959598      -1.36684503       1.38867427       0.00000000
Si       1.30471497      -1.43003394      -1.49122350       0.00000000
Si      -1.30326516       1.51988958      -1.49094479       0.00000000
Si       2.69851995      -2.72233593       0.01914110       0.00000000
Si       2.72811888       2.69931816      -0.00955851       0.00000000
Si      -2.71906164       2.71026504       0.01479539       0.00000000
Si      -2.71788876      -2.72437218      -0.00350616       0.00000000
Si      -0.00068418       2.70405855       2.75119167       0.00000000
Si       2.71397916      -0.01135413       2.75160457       0.00000000
