10
Lattice="16.28999089631971 0.0 0.0 0.0 16.28999089631971 0.0 0.0 0.0 34.40785480372833" Properties=species:S:1:pos:R:3:initial_magmoms:R:1 pbc="T T T"
Si       1.35964485       1.76072094      -0.66166342       0.00000000
Si      -1.43242857       1.29068928       1.31565388       0.00000000
Si      -1.23131223      -0.27525213      -1.98426769       0.00000000
Si       1.17284742      -1.94391828       0.72672871       0.00000000
Si       0.35693019      -1.65752379      -3.05080856       0.00000000
Si      -3.42551007       1.22192919      -0.01218039       0.00000000
Si      -3.38372622      -0.88021386      -1.00605183       0.00000000
Si       2.76742665       2.00777508       1.26951292       0.00000000
Si      -0.09247833       3.32939907      -1.62487744       0.00000000
Si       3.32653203      -1.63012401      -0.25891925       0.00000000
