10
Lattice="16.28999089631971 0.0 0.0 0.0 16.28999089631971 0.0 0.0 0.0 34.40785480372833" Properties=species:S:1:pos:R:3:initial_magmoms:R:1 pbc="T T T"
Si       1.43242857      -1.29068928      -1.31565388       0.00000000
Si       0.29605446       2.34054720       0.16584595       0.00000000
Si      -1.99308150      -0.06876009      -1.32783427       0.00000000
Si       0.71581518      -0.53981802       2.35160615       0.00000000
Si       2.79207342       0.47003166      -1.97731730       0.00000000
Si      -1.22331384       2.49038262       2.13301293       0.00000000
Si       0.20111634      -1.56594141      -3.29992157       0.00000000
Si       2.96451936       0.53706501       2.09929321       0.00000000
Si      -1.95129765      -2.17090314      -2.32170571       0.00000000
Si       1.33995024       2.03870979      -2.94053132       0.00000000
