10
Lattice="16.28999089631971 0.0 0.0 0.0 16.28999089631971 0.0 0.0 0.0 34.40785480372833" Properties=species:S:1:pos:R:3:initial_magmoms:R:1 pbc="T T T"
Si       0.83421090      -1.82094507       1.42947513       0.00000000
Si      -1.64556693       1.11793383       1.47582253       0.00000000
Si       2.24870418       1.07688303      -0.25231294       0.00000000
Si      -0.71581518       0.53981802      -2.35160615       0.00000000
Si      -1.93912902       3.03020064      -0.21859322       0.00000000
Si      -0.41976072       2.88036522      -2.18576020       0.00000000
Si       1.47106845       3.30831981      -0.67501367       0.00000000
Si       1.31905017      -3.44230506      -0.33035000       0.00000000
Si       0.71661339      -0.75087126      -3.66726003       0.00000000
Si      -0.33093135       2.32872066       3.09959002       0.00000000
