10
Lattice="16.28999089631971 0.0 0.0 0.0 16.28999089631971 0.0 0.0 0.0 34.40785480372833" Properties=species:S:1:pos:R:3:initial_magmoms:R:1 pbc="T T T"
Si       1.35915615       1.35322659       1.37477349       0.00000000
Si      -1.35449721      -1.36686132       1.38031316       0.00000000
Si       1.41579648      -1.19037546      -1.50574018       0.00000000
Si      -1.41319008       1.35444834      -1.41798978       0.00000000
Si      -2.68643277      -2.70658350       0.01265866       0.00000000
Si       2.71906164      -2.71026504      -0.01479539       0.00000000
Si      -2.71730232       2.71313208       0.01725555       0.00000000
Si       2.72192868       2.71542897      -0.00977872       0.00000000
Si       0.00395847       2.71078632       2.73612102       0.00000000
Si      -2.71068858      -0.00456120       2.73701563       0.00000000
