10
Lattice="16.28999089631971 0.0 0.0 0.0 16.28999089631971 0.0 0.0 0.0 34.40785480372833" Properties=species:S:1:pos:R:3:initial_magmoms:R:1 pbc="T T T"
Si       0.52985506       1.08390402       2.07070027       0.00000000
Si      -0.60065465       1.63435941      -1.65749611       0.00000000
Si       0.36636862      -2.40167447      -0.58957892       0.00000000
Si      -2.13840526      -1.41800052       1.89136643       0.00000000
Si      -0.30117766      -0.75707938       3.35548138       0.00000000
Si       1.65186139       1.92075390      -2.52863466       0.00000000
Si      -3.20826730      -1.77208647      -0.43563809       0.00000000
Si       2.13590245      -2.29631075      -2.17485290       0.00000000
Si      -1.24754359       2.85221610       2.23155884       0.00000000
Si       2.30852758      -0.25233210      -3.27903599       0.00000000
