10
Lattice="16.28999089631971 0.0 0.0 0.0 16.28999089631971 0.0 0.0 0.0 34.40785480372833" Properties=species:S:1:pos:R:3:initial_magmoms:R:1 pbc="T T T"
Si       0.00615762      -1.60471161      -1.76853032       0.00000000
Si      -2.14876503      -0.14506245       1.06048509       0.00000000
Si       0.00180819       2.18712798      -0.99493809       0.00000000
Si       1.75734891      -0.66101562       1.55547676       0.00000000
Si       1.84114467       1.89771984      -2.41329947       0.00000000
Si      -1.43304759      -0.96736536       3.15358488       0.00000000
Si       0.66754791      -0.06757092       3.57373943       0.00000000
Si      -1.22310207      -0.68527143      -3.54497445       0.00000000
Si       3.71776896       0.52851276       0.85114758       0.00000000
Si      -0.61605522      -3.69636390      -0.90988182       0.00000000
