10
Lattice="16.28999089631971 0.0 0.0 0.0 16.28999089631971 0.0 0.0 0.0 34.40785480372833" Properties=species:S:1:pos:R:3:initial_magmoms:R:1 pbc="T T T"
Si      -1.35435363       1.35770332      -1.35511971       0.00000000
Si      -1.35560796      -1.35799836       1.35776912       0.00000000
Si       1.35911795       1.35704684       1.35773471       0.00000000
Si       1.36316439      -1.36311342      -1.36093464       0.00000000
Si      -0.00744756       2.71266806      -2.69759797       0.00000000
Si      -2.69932119      -0.02140694      -2.72334538       0.00000000
Si      -2.71274415       2.71361288       0.00048171       0.00000000
Si      -2.71306995       0.00008492       2.71495330       0.00000000
Si       2.71386928       2.71452512       0.00041289       0.00000000
Si       0.00173456       2.71442738       2.71471245       0.00000000
