10
Lattice="16.28999089631971 0.0 0.0 0.0 16.28999089631971 0.0 0.0 0.0 34.40785480372833" Properties=species:S:1:pos:R:3:initial_magmoms:R:1 pbc="T T T"
Si       1.35692442       1.35754344      -1.35735622       0.00000000
Si      -1.35850455      -1.35755973      -1.35756267       0.00000000
Si       1.35826020      -1.35749457       1.36248300       0.00000000
Si      -1.35866745       1.35961227       1.36055615       0.00000000
Si      -0.03323160      -2.71018359       2.71292324       0.00000000
Si       2.70593190       0.02941974       2.72186928       0.00000000
Si       2.71454931      -0.00022806      -2.71474685       0.00000000
Si      -0.00040725       2.71490769      -2.71485008       0.00000000
Si      -2.71564074      -0.00009774      -2.71454041       0.00000000
Si      -0.00043983      -2.71552671      -2.71467804       0.00000000
