10
Lattice="16.28999089631971 0.0 0.0 0.0 16.28999089631971 0.0 0.0 0.0 34.40785480372833" Properties=species:S:1:pos:R:3:initial_magmoms:R:1 pbc="T T T"
Si      -1.34993601      -1.34658027      -1.38732548       0.00000000
Si       1.36267479       1.36778116      -1.38639647       0.00000000
Si       1.29010284      -1.39448916       1.47919450       0.00000000
Si      -1.15113285       1.42657592       1.59680062       0.00000000
Si       2.45913840       0.29901924       2.85220631       0.00000000
Si       2.71466334      -2.67677280      -0.02601235       0.00000000
Si      -2.72440476      -2.67913485      -0.01018473       0.00000000
Si      -2.67830406       2.72646286      -0.01083848       0.00000000
Si       0.00873144      -2.70619254      -2.74788164       0.00000000
Si      -2.70705591       0.00874773      -2.74795045       0.00000000
