10
Lattice="16.28999089631971 0.0 0.0 0.0 16.28999089631971 0.0 0.0 0.0 34.40785480372833" Properties=species:S:1:pos:R:3:initial_magmoms:R:1 pbc="T T T"
Si       2.21974056      -0.32009850       0.57729531       0.00000000
Si      -0.05289363      -1.90640241      -1.43807710       0.00000000
Si      -1.10407104      -0.86874570       1.93888370       0.00000000
Si      -0.33695865       2.48572368      -0.08526271       0.00000000
Si      -1.12153392       0.87524541      -2.59707192       0.00000000
Si      -2.09111472      -1.24825383      -2.34087089       0.00000000
Si      -2.04864669       1.18682424       2.49202468       0.00000000
Si       0.02717172       2.54490525       2.48951291       0.00000000
Si       3.29471766       1.56952521      -0.02467045       0.00000000
Si      -3.59337852      -0.71257347      -0.62711791       0.00000000
