10
Lattice="16.28999089631971 0.0 0.0 0.0 16.28999089631971 0.0 0.0 0.0 34.40785480372833" Properties=species:S:1:pos:R:3:initial_magmoms:R:1 pbc="T T T"
Si      -0.96143580      -1.85279202       1.07624389       0.00000000
Si       2.26237149      -0.68901813       0.36214287       0.00000000
Si      -0.34727022       1.94879618       1.35188537       0.00000000
Si      -0.16827570      -0.54918477      -2.47540568       0.00000000
Si       2.94269076       1.58229235      -0.41967284       0.00000000
Si       1.47779622      -2.29949640      -2.14966634       0.00000000
Si       1.89477135       2.68383356       1.37328707       0.00000000
Si       0.55068345      -1.98791757       2.93943027       0.00000000
Si      -2.47150251      -1.09245627      -2.83180244       0.00000000
Si      -1.49340204       1.34464732       3.39275401       0.00000000
