10
Lattice="16.28999089631971 0.0 0.0 0.0 16.28999089631971 0.0 0.0 0.0 34.40785480372833" Properties=species:S:1:pos:R:3:initial_magmoms:R:1 pbc="T T T"
Si      -1.81426617       0.50463162      -1.48060523       0.00000000
Si       1.21505481      -2.03336667      -0.48250162       0.00000000
Si      -0.13035258       1.59065334       1.88094084       0.00000000
Si       1.75860324       1.06951995      -1.37435371       0.00000000
Si      -1.53507186      -1.86931008       1.33013959       0.00000000
Si      -0.41479227      -3.58494030       0.15270214       0.00000000
Si      -2.06226513       2.81174133      -1.29504356       0.00000000
Si       1.99197378       3.16165672      -0.25410215       0.00000000
Si      -0.94944636       0.54004608      -3.67393516       0.00000000
Si       0.77054958       0.64954746       3.84256815       0.00000000
