10
Lattice="16.28999089631971 0.0 0.0 0.0 16.28999089631971 0.0 0.0 0.0 34.40785480372833" Properties=species:S:1:pos:R:3:initial_magmoms:R:1 pbc="T T T"
Si      -1.45573956       1.22836374      -1.32504723       0.00000000
Si       1.20848247      -1.35024715      -1.46137467       0.00000000
Si      -1.34690607      -1.35496473       1.34247826       0.00000000
Si       1.37191026       1.35731538       1.33810846       0.00000000
Si       0.26211654       2.25904833      -2.58529721       0.00000000
Si       2.03951519       0.49073625      -2.74615578       0.00000000
Si      -0.62874513      -2.01116829      -2.92548962       0.00000000
Si      -2.46685986      -0.37934523      -2.65710437       0.00000000
Si      -2.70529659       0.00094482       2.69807968       0.00000000
Si       0.00744756      -2.71266806       2.69759797       0.00000000
