10
Lattice="16.28999089631971 0.0 0.0 0.0 16.28999089631971 0.0 0.0 0.0 34.40785480372833" Properties=species:S:1:pos:R:3:initial_magmoms:R:1 pbc="T T T"
Si       1.33812342       1.36355445      -1.37170431       0.00000000
Si      -1.36870209      -1.36484136      -1.36760977       0.00000000
Si       1.70527697      -0.99535158       1.34992412       0.00000000
Si      -1.35672894       1.39704669       1.45466169       0.00000000
Si      -0.13737357      -2.18224098       2.53042387       0.00000000
Si       2.71041395      -2.69912594      -0.00333756       0.00000000
Si       2.69128623       2.72505636       0.02670051       0.00000000
Si      -2.70663237      -2.71802071       0.00980624       0.00000000
Si       2.70565238      -0.00433314      -2.72689283       0.00000000
Si      -2.72572425       2.71433754       0.00495473       0.00000000
