10
Lattice="16.28999089631971 0.0 0.0 0.0 16.28999089631971 0.0 0.0 0.0 34.40785480372833" Properties=species:S:1:pos:R:3:initial_magmoms:R:1 pbc="T T T"
Si       1.35718506       1.35643572      -1.35708096       0.00000000
Si      -1.35628911      -1.35777150      -1.35780353       0.00000000
Si      -1.35736425       1.35713619       1.35756267       0.00000000
Si       1.35806472      -1.35687555       1.35766589       0.00000000
Si       2.71544526      -0.00141723       2.71251034       0.00000000
Si       0.00127062       2.71422351       2.71457481       0.00000000
Si      -2.71438641       2.71441899       0.00034408       0.00000000
Si      -2.71459818      -2.71461447       0.00055053       0.00000000
Si       0.00019548      -2.71342530      -2.71619198       0.00000000
Si       0.00014661      -2.71394658       2.71567587       0.00000000
