10
Lattice="16.28999089631971 0.0 0.0 0.0 16.28999089631971 0.0 0.0 0.0 34.40785480372833" Properties=species:S:1:pos:R:3:initial_magmoms:R:1 pbc="T T T"
Si      -1.36899531       1.31729085      -1.44970696       0.00000000
Si       0.92362671       1.68316425       1.46825280       0.00000000
Si      -2.09334645      -0.51230421       1.10776150       0.00000000
Si       1.35672894      -1.39704669      -1.45466169       0.00000000
Si      -0.87418656      -0.93076173       3.33863043       0.00000000
Si      -2.55515166      -2.58659136      -0.05229997       0.00000000
Si       0.76559742       0.87966000       3.69086383       0.00000000
Si       3.06200591      -2.39239827      -0.10473757       0.00000000
Si      -0.01164735       2.67226047      -2.82595310       0.00000000
Si       2.65137669       2.85597909       0.21793947       0.00000000
