10
Lattice="16.28999089631971 0.0 0.0 0.0 16.28999089631971 0.0 0.0 0.0 34.40785480372833" Properties=species:S:1:pos:R:3:initial_magmoms:R:1 pbc="T T T"
Si      -1.32009273       0.72860283       1.75304677       0.00000000
Si      -0.36813771      -2.26411452      -0.45397749       0.00000000
Si       2.11468376      -0.48576780       1.12933524       0.00000000
Si      -0.49075254       0.97555923      -2.20010828       0.00000000
Si       1.10657970      -2.06610957      -2.30188677       0.00000000
Si       1.52599833       0.13776453      -3.06302335       0.00000000
Si      -1.41657840       3.04937397       1.57766984       0.00000000
Si      -3.57528033       0.18230139       1.19061567       0.00000000
Si      -2.59410105      -0.04302189      -2.76677156       0.00000000
Si       0.42598350      -3.64326013       1.25822714       0.00000000
