10
Lattice="16.28999089631971 0.0 0.0 0.0 16.28999089631971 0.0 0.0 0.0 34.40785480372833" Properties=species:S:1:pos:R:3:initial_magmoms:R:1 pbc="T T T"
Si       1.35666704       1.35852084      -1.35604872       0.00000000
Si       1.35728606      -1.35738054       1.35735622       0.00000000
Si      -1.35821217      -1.35879777      -1.35591109       0.00000000
Si      -1.35892518       1.35795069       1.35776912       0.00000000
Si      -2.71527000      -0.00099369       2.71275120       0.00000000
Si       2.71422677      -2.71443528      -0.00037849       0.00000000
Si      -0.00095134       2.71450044       2.71519416       0.00000000
Si      -2.71517226       2.71511946      -0.00027526       0.00000000
Si       2.71499240       2.71544526      -0.00003441       0.00000000
Si       2.71510643       0.00032580       2.71574468       0.00000000
