10
Lattice="16.28999089631971 0.0 0.0 0.0 16.28999089631971 0.0 0.0 0.0 34.40785480372833" Properties=species:S:1:pos:R:3:initial_magmoms:R:1 pbc="T T T"
Si      -2.01675087       0.83779470       0.86291507       0.00000000
Si      -0.41941863      -2.20387410       0.76113658       0.00000000
Si       0.39505272      -0.38488383      -2.32910340       0.00000000
Si       1.65128702       1.36327752       1.17946751       0.00000000
Si      -1.52599833      -0.13776453       3.06302335       0.00000000
Si       1.68423680      -3.08112318       1.26091095       0.00000000
Si       0.44950693       1.76994108      -3.31413202       0.00000000
Si      -1.42614063      -1.75353705      -3.07847249       0.00000000
Si      -1.47535272      -3.50222783      -0.82805990       0.00000000
Si       2.64985262      -1.17540495      -2.60870179       0.00000000
