10
Lattice="16.28999089631971 0.0 0.0 0.0 16.28999089631971 0.0 0.0 0.0 34.40785480372833" Properties=species:S:1:pos:R:3:initial_magmoms:R:1 pbc="T T T"
Si      -1.35619137       1.35640314      -1.35735622       0.00000000
Si       1.36503684       1.34304534       1.36692161       0.00000000
Si       1.35798327      -1.35923760      -1.35942070       0.00000000
Si      -1.35734796      -1.35496962       1.37624615       0.00000000
Si       0.03411126       2.75854860       2.63454210       0.00000000
Si       2.70649971      -2.70575271      -0.00041289       0.00000000
Si      -2.71314837       2.71463076       0.00557408       0.00000000
Si       2.71345788       2.71489140       0.00075697       0.00000000
Si       0.00050499       2.71448415      -2.71412751       0.00000000
Si       2.71432809      -0.00029322      -2.71440277       0.00000000
