10
Lattice="16.28999089631971 0.0 0.0 0.0 16.28999089631971 0.0 0.0 0.0 34.40785480372833" Properties=species:S:1:pos:R:3:initial_magmoms:R:1 pbc="T T T"
Si      -1.35563207      -1.35407204       1.35794116       0.00000000
Si       1.35738339      -1.35738054      -1.35697774       0.00000000
Si      -1.35784751       1.35736425      -1.35666807       0.00000000
Si       1.35865401       1.35711990       1.35917984       0.00000000
Si       2.71213472       0.00009774      -2.71429955       0.00000000
Si      -0.00033356       2.71371852      -2.71330172       0.00000000
Si      -2.71447871      -0.00081450      -2.71423074       0.00000000
Si      -0.00173456      -2.71442738      -2.71471245       0.00000000
Si      -2.71480451      -2.71434245       0.00024086       0.00000000
Si       2.71516466       2.71513575      -0.00003441       0.00000000
