10
Lattice="16.28999089631971 0.0 0.0 0.0 16.28999089631971 0.0 0.0 0.0 34.40785480372833" Properties=species:S:1:pos:R:3:initial_magmoms:R:1 pbc="T T T"
Si       1.35418770      -1.35741312       1.35711537       0.00000000
Si       1.37002158       1.33620046      -1.36653968       0.00000000
Si      -1.35759231       1.35887711       1.35783793       0.00000000
Si      -1.35568638      -1.35153243      -1.38930049       0.00000000
Si      -0.05882319       2.63850663      -2.69023124       0.00000000
Si       0.16534350      -2.55278961      -2.82888465       0.00000000
Si       2.71373481      -0.00039096       2.71457481       0.00000000
Si      -0.00115659      -2.71529865       2.71464363       0.00000000
Si      -0.00131949       2.71489044       2.71505652       0.00000000
Si       2.71498914       2.71531072       0.00168599       0.00000000
