10
Lattice="16.28999089631971 0.0 0.0 0.0 16.28999089631971 0.0 0.0 0.0 34.40785480372833" Properties=species:S:1:pos:R:3:initial_magmoms:R:1 pbc="T T T"
Si      -1.30323258      -1.35964485      -1.54060365       0.00000000
Si       0.56798343       1.93002521      -1.37062876       0.00000000
Si       1.21319775      -1.48418190       1.50270540       0.00000000
Si      -1.49514507       1.20711850       1.52911345       0.00000000
Si       2.40521103       2.59094635       0.09348619       0.00000000
Si      -2.41640973       0.29660832      -2.90872954       0.00000000
Si      -2.69982315      -2.68187157       0.06676848       0.00000000
Si      -2.92398984       2.50942467       0.20542189       0.00000000
Si       2.56734051      -0.13458798       2.89152419       0.00000000
Si      -0.15017751       2.58622876       2.89733912       0.00000000
