10
Lattice="16.28999089631971 0.0 0.0 0.0 16.28999089631971 0.0 0.0 0.0 34.40785480372833" Properties=species:S:1:pos:R:3:initial_magmoms:R:1 pbc="T T T"
Si       1.07497710       1.88962371      -0.60196576       0.00000000
Si       0.39917016      -0.56865132       2.18730855       0.00000000
Si      -2.21974056       0.32009850      -0.57729531       0.00000000
Si       1.07893557      -1.37222073      -1.54360604       0.00000000
Si      -2.27263419      -1.58630391      -2.01537241       0.00000000
Si       2.23182352      -1.98285138       1.71595509       0.00000000
Si       0.01089801       3.36393387       0.84454127       0.00000000
Si       1.44332658      -3.24491913      -0.16928674       0.00000000
Si      -1.67749533      -1.49696955       2.81487377       0.00000000
Si      -3.32381160      -0.54864720       1.36158839       0.00000000
