10
Lattice="16.28999089631971 0.0 0.0 0.0 16.28999089631971 0.0 0.0 0.0 34.40785480372833" Properties=species:S:1:pos:R:3:initial_magmoms:R:1 pbc="T T T"
Si       0.84331701       2.15610109       0.25885044       0.00000000
Si       0.30807648      -0.37781397       2.29084185       0.00000000
Si       1.68914498      -1.28575341      -1.07803310       0.00000000
Si      -2.10663909      -0.48923757      -1.38171700       0.00000000
Si      -0.55399032      -2.24546247      -1.79836194       0.00000000
Si      -0.42529932       2.87080203       2.12654425       0.00000000
Si       2.99630834       1.74289872       1.09534026       0.00000000
Si       2.60164562      -0.01656693       2.65209011       0.00000000
Si      -0.76690062      -2.26743768       2.89280760       0.00000000
Si       2.42542366      -2.84126922       0.53820797       0.00000000
