10
Lattice="16.28999089631971 0.0 0.0 0.0 16.28999089631971 0.0 0.0 0.0 34.40785480372833" Properties=species:S:1:pos:R:3:initial_magmoms:R:1 pbc="T T T"
Si       0.23337054       2.09213677       1.12025156       0.00000000
Si       2.19911742      -0.91999404      -0.41127732       0.00000000
Si      -1.75860324      -1.06951995       1.37435371       0.00000000
Si      -0.63223119       0.82860714      -2.30209322       0.00000000
Si      -0.54354843      -3.10288662       0.89185209       0.00000000
Si       2.87081928       1.11329118      -1.36736891       0.00000000
Si      -1.75716972       2.92929616       0.08244127       0.00000000
Si      -2.70804960      -0.52947387      -2.29958145       0.00000000
Si      -3.57286941      -0.56488833      -0.10625152       0.00000000
Si       2.27727684       2.82304627       0.16873621       0.00000000
