10
Lattice="16.28999089631971 0.0 0.0 0.0 16.28999089631971 0.0 0.0 0.0 34.40785480372833" Properties=species:S:1:pos:R:3:initial_magmoms:R:1 pbc="T T T"
Si       0.89738026       1.88776665       1.10160250       0.00000000
Si      -0.21316752      -1.86986394       1.43697604       0.00000000
Si       1.78207061      -1.01126691      -1.25478635       0.00000000
Si      -2.11468376       0.48576780      -1.12933524       0.00000000
Si      -2.48282147      -1.77834672      -1.58331273       0.00000000
Si       1.16863320       3.14559900      -0.89033815       0.00000000
Si      -1.68870026      -3.15749233       0.12889190       0.00000000
Si      -3.43477649       1.21437063       0.62371153       0.00000000
Si       1.06260159       1.98680985      -3.01289108       0.00000000
Si      -1.25470208      -1.13103099       3.40321400       0.00000000
