10
Lattice="16.28999089631971 0.0 0.0 0.0 16.28999089631971 0.0 0.0 0.0 34.40785480372833" Properties=species:S:1:pos:R:3:initial_magmoms:R:1 pbc="T T T"
Si      -0.73627868       1.55551581      -1.61624107       0.00000000
Si      -2.11338871      -0.79838919       0.81099359       0.00000000
Si       1.45513846       0.86946246       1.74014382       0.00000000
Si       0.38236540      -2.02758372      -1.36004004       0.00000000
Si       0.17622196       2.82470229       2.11388215       0.00000000
Si       1.44443593       2.13091119      -2.56211352       0.00000000
Si      -0.26735962      -3.61053189       0.58827142       0.00000000
Si      -2.11734718       2.46345525       1.75263388       0.00000000
Si      -2.42542366       2.84126922      -0.53820797       0.00000000
Si      -2.97941398       0.59580675      -2.33656991       0.00000000
