10
Lattice="16.28999089631971 0.0 0.0 0.0 16.28999089631971 0.0 0.0 0.0 34.40785480372833" Properties=species:S:1:pos:R:3:initial_magmoms:R:1 pbc="T T T"
Si       1.08760185      -2.05079697      -0.10711171       0.00000000
Si      -2.17175511      -0.85224393       0.21797388       0.00000000
Si       0.63079767       0.94943007       2.05827902       0.00000000
Si      -0.17422155       1.13199210      -2.09850183       0.00000000
Si      -3.28066754       1.15742079       0.57829314       0.00000000
Si      -2.27778672      -2.01103308      -1.90457905       0.00000000
Si      -1.16079282      -0.57577005      -3.39905065       0.00000000
Si      -0.44527086      -3.37838310      -1.31651408       0.00000000
Si       3.15507978      -1.55859462      -1.00849479       0.00000000
Si       3.67769556       0.48467637       0.17255549       0.00000000
