10
Lattice="16.28999089631971 0.0 0.0 0.0 16.28999089631971 0.0 0.0 0.0 34.40785480372833" Properties=species:S:1:pos:R:3:initial_magmoms:R:1 pbc="T T T"
Si       1.91308131      -1.33232652      -0.24384860       0.00000000
Si      -1.64741106      -1.59627339      -0.62391798       0.00000000
Si       0.70473798       1.72237428       1.55561439       0.00000000
Si      -0.39967189       1.51840719      -1.89250189       0.00000000
Si       0.50958378      -1.88732682       2.43583663       0.00000000
Si       2.66958891      -0.11609883      -2.14636318       0.00000000
Si       1.81320732       2.07360297      -2.16019515       0.00000000
Si      -2.95437788      -0.33143634      -2.12468622       0.00000000
Si       2.04897249       3.03138981      -0.01469216       0.00000000
Si      -1.50060352       1.93033242       2.86813716       0.00000000
