10
Lattice="16.28999089631971 0.0 0.0 0.0 16.28999089631971 0.0 0.0 0.0 34.40785480372833" Properties=species:S:1:pos:R:3:initial_magmoms:R:1 pbc="T T T"
Si      -1.70885262      -1.09283094       1.33606261       0.00000000
Si       0.96136250       1.58879628       1.58786287       0.00000000
Si      -0.19803069       0.74824857      -2.37097778       0.00000000
Si       1.82504200      -1.46219040      -1.09245000       0.00000000
Si      -1.68576969       2.58509268      -2.08838591       0.00000000
Si       2.72509708       2.62158228       0.51685930       0.00000000
Si       2.67650401      -2.69527824       0.68090434       0.00000000
Si      -0.38069634      -2.35828701       3.04394216       0.00000000
Si       2.34397624       0.34104744       3.07358455       0.00000000
Si       3.61550848       0.06864606      -1.81498095       0.00000000
