10
Lattice="16.28999089631971 0.0 0.0 0.0 16.28999089631971 0.0 0.0 0.0 34.40785480372833" Properties=species:S:1:pos:R:3:initial_magmoms:R:1 pbc="T T T"
Si      -1.48773900       1.83684411       0.28259187       0.00000000
Si       0.19803069      -0.74824857       2.37097778       0.00000000
Si       2.20534150      -0.20795814      -1.31252276       0.00000000
Si      -1.95798243      -0.54305973      -1.77561834       0.00000000
Si       2.02307269      -2.21043897       1.27852778       0.00000000
Si      -3.48398076       0.92269818      -0.75766139       0.00000000
Si       1.50060352      -1.93033242      -2.86813716       0.00000000
Si      -0.47733546       3.74156865      -0.92884056       0.00000000
Si       3.81353917      -0.67960251       0.55599684       0.00000000
Si       1.15939318       0.84054771       3.95884065       0.00000000
