10
Lattice="16.28999089631971 0.0 0.0 0.0 16.28999089631971 0.0 0.0 0.0 34.40785480372833" Properties=species:S:1:pos:R:3:initial_magmoms:R:1 pbc="T T T"
Si       0.24426855       1.36875096      -1.81080181       0.00000000
Si      -1.76373459      -1.03278600       1.07100357       0.00000000
Si       0.95151519       1.82692350       1.07707656       0.00000000
Si       1.62629586      -1.68930558      -0.10469525       0.00000000
Si      -0.38112084      -2.28053484       2.55672525       0.00000000
Si       2.33833176       0.44165448       2.54963035       0.00000000
Si       0.89041140      -2.55293622      -2.33184024       0.00000000
Si      -2.72509708      -2.62158228      -0.51685930       0.00000000
Si       2.96780994       2.48991021       0.05691200       0.00000000
Si       1.07253360      -3.53735721       1.24372422       0.00000000
