10
Lattice="16.28999089631971 0.0 0.0 0.0 16.28999089631971 0.0 0.0 0.0 34.40785480372833" Properties=species:S:1:pos:R:3:initial_magmoms:R:1 pbc="T T T"
Si       1.35145098      -1.34964931      -1.35539497       0.00000000
Si       1.34513046       1.34656398       1.36637109       0.00000000
Si      -1.35642432      -1.33197140       1.37166990       0.00000000
Si      -1.36118588       1.36282140      -1.35188537       0.00000000
Si      -2.36156130       0.37180296       2.72493158       0.00000000
Si      -0.29406708       2.39946813       2.71732744       0.00000000
Si       0.11368791      -2.62127994       2.69042049       0.00000000
Si       2.70915732      -2.71079911       0.00677835       0.00000000
Si      -0.00363267      -2.70915171      -2.71103080       0.00000000
Si       2.71026504       0.00477297      -2.71154692       0.00000000
