10
Lattice="16.28999089631971 0.0 0.0 0.0 16.28999089631971 0.0 0.0 0.0 34.32429715621058" Properties=species:S:1:pos:R:3:initial_magmoms:R:1 pbc="T T T"
Si      -1.38229839       1.25294698       1.49605965       0.00000000
Si      -1.86977664      -0.97540610      -1.14613320       0.00000000
Si       1.63020220       1.14162112      -1.36718012       0.00000000
Si       1.29614317      -1.47138352       1.47096171       0.00000000
Si       3.35203891      -0.99919928      -1.26331474       0.00000000
Si      -3.54940596       0.69120262      -0.98898584       0.00000000
Si      -2.73752865       2.57077540       0.14966088       0.00000000
Si       2.77178911       2.64934207       0.11878273       0.00000000
Si      -0.04887163       2.60591293       2.85905079       0.00000000
Si      -2.76424425      -2.75484004       0.15543767       0.00000000
