10
Lattice="16.28999089631971 0.0 0.0 0.0 16.28999089631971 0.0 0.0 0.0 34.32429715621058" Properties=species:S:1:pos:R:3:initial_magmoms:R:1 pbc="T T T"
Si       0.56936808       0.92962143      -2.05135844       0.00000000
Si       1.06248267      -2.06368236      -0.17447050       0.00000000
Si      -2.29760513       0.01773981       0.52588285       0.00000000
Si       1.45963287       1.09362915       1.53343883       0.00000000
Si      -2.62010315       2.38091382       0.74984901       0.00000000
Si      -2.22132395      -0.70328817       2.79468584       0.00000000
Si       3.13007463      -1.64805930       0.98160680       0.00000000
Si       1.02408714       3.33063711       1.42902426       0.00000000
Si       0.07164342      -3.63410352       1.24089268       0.00000000
Si       0.10150299       3.22649514      -2.10418356       0.00000000
