10
Lattice="16.28999089631971 0.0 0.0 0.0 16.28999089631971 0.0 0.0 0.0 34.32429715621058" Properties=species:S:1:pos:R:3:initial_magmoms:R:1 pbc="T T T"
Si      -1.42889690      -1.03149909      -1.54528072       0.00000000
Si      -0.25414029       2.33014508       0.29590993       0.00000000
Si      -0.47291499      -0.83856033       2.17283220       0.00000000
Si       2.21529339      -0.08177580      -0.86610547       0.00000000
Si       2.65083912      -2.31878376      -0.76169090       0.00000000
Si       3.29953950       1.44602976       0.51970447       0.00000000
Si      -0.88595608      -0.00161271      -3.55359647       0.00000000
Si       0.65842551       0.77436700       3.54223512       0.00000000
Si       1.88630055       3.15303443      -0.37914640       0.00000000
Si      -0.59369068       2.57097644       2.66476830       0.00000000
