10
Lattice="16.28999089631971 0.0 0.0 0.0 16.28999089631971 0.0 0.0 0.0 34.32429715621058" Properties=species:S:1:pos:R:3:initial_magmoms:R:1 pbc="T T T"
Si       1.89631890       0.87485445       1.07487901       0.00000000
Si       0.31055256      -1.19066868      -2.02384617       0.00000000
Si      -0.94918572      -1.89902956       1.07576458       0.00000000
Si      -1.62930951       1.91102877      -0.24292902       0.00000000
Si      -2.10645990      -0.49694274       2.50144222       0.00000000
Si       0.60644412       2.24658648       2.47485117       0.00000000
Si      -0.23239314       0.45481680      -3.55701041       0.00000000
Si      -3.35241684       0.90109764       1.09849414       0.00000000
Si      -1.06616421      -3.10940686      -1.93594159       0.00000000
Si      -0.71573373       3.67624575       1.02259278       0.00000000
