10
Lattice="16.28999089631971 0.0 0.0 0.0 16.28999089631971 0.0 0.0 0.0 34.32429715621058" Properties=species:S:1:pos:R:3:initial_magmoms:R:1 pbc="T T T"
Si       1.15727418      -1.40208682      -1.42567764       0.00000000
Si      -1.35042471      -1.35659699       1.33556945       0.00000000
Si      -1.24595694       1.39804038      -1.40294808       0.00000000
Si       1.36309833       1.35622395       1.33560377       0.00000000
Si       2.10645990       0.49694274      -2.50144222       0.00000000
Si      -0.66570714      -2.25050097      -2.78504555       0.00000000
Si       0.47715039       2.40797151      -2.74437123       0.00000000
Si      -2.38754385      -0.10968057      -2.88891093       0.00000000
Si      -2.71016730      -0.00042354       2.69381697       0.00000000
Si       0.00702099      -2.71333730       2.69299318       0.00000000
