10
Lattice="16.28999089631971 0.0 0.0 0.0 16.28999089631971 0.0 0.0 0.0 34.32429715621058" Properties=species:S:1:pos:R:3:initial_magmoms:R:1 pbc="T T T"
Si      -1.35441576      -1.36093176      -1.39243454       0.00000000
Si       1.35946566       1.35641943      -1.39270914       0.00000000
Si       1.39461948      -1.36298430       1.45648372       0.00000000
Si      -1.36251189       1.43557254       1.46190696       0.00000000
Si      -2.70742081       2.70410742      -0.03284837       0.00000000
Si       2.70428661       2.71697652      -0.01905000       0.00000000
Si       2.71287144      -2.71391563      -0.03830594       0.00000000
Si      -2.72025081      -2.71202436      -0.01990810       0.00000000
Si       0.00249237       2.71059084      -2.75438909       0.00000000
Si      -2.71238926      -0.00278559      -2.75456071       0.00000000
