10
Lattice="16.28999089631971 0.0 0.0 0.0 16.28999089631971 0.0 0.0 0.0 34.32429715621058" Properties=species:S:1:pos:R:3:initial_magmoms:R:1 pbc="T T T"
Si       0.86019345       1.63914867      -1.48974398       0.00000000
Si      -1.76023224      -0.97782354      -1.31359159       0.00000000
Si       1.59589872      -1.92854052      -0.15229699       0.00000000
Si      -0.17536185       0.88814709       2.46400537       0.00000000
Si       2.75494851       1.67443281       1.63133178       0.00000000
Si       2.29102560       0.38310822      -2.82042907       0.00000000
Si      -0.44198028      -2.32875487      -2.80838124       0.00000000
Si       2.15614440       3.02725215      -0.12147376       0.00000000
Si       1.25807670      -2.93807580       2.01916223       0.00000000
Si      -2.59245576      -2.88526362      -0.21270779       0.00000000
