10
Lattice="16.28999089631971 0.0 0.0 0.0 16.28999089631971 0.0 0.0 0.0 34.32429715621058" Properties=species:S:1:pos:R:3:initial_magmoms:R:1 pbc="T T T"
Si       2.26893636       0.33920667       0.49063178       0.00000000
Si      -0.87720021      -2.03469335       0.79079792       0.00000000
Si      -1.27477395       1.63742193       1.10905299       0.00000000
Si      -0.27383490       0.81792090      -2.33690243       0.00000000
Si       0.38419965      -1.17053098      -3.35444679       0.00000000
Si      -3.49568739       0.79503345       0.73333902       0.00000000
Si      -3.25719690      -1.81388270       0.73213767       0.00000000
Si       3.44197926       0.63307827      -1.56920477       0.00000000
Si       2.57411322       2.39586804       1.61935260       0.00000000
Si      -0.52136145      -2.57444621       3.06083659       0.00000000
