10
Lattice="16.28999089631971 0.0 0.0 0.0 16.28999089631971 0.0 0.0 0.0 34.32429715621058" Properties=species:S:1:pos:R:3:initial_magmoms:R:1 pbc="T T T"
Si      -1.17304290      -0.29387160       2.05983655       0.00000000
Si       2.22293340      -0.92851371       0.43461449       0.00000000
Si      -0.38980341       1.97483670      -1.41625562       0.00000000
Si       1.04363514      -1.85138619      -1.86109876       0.00000000
Si      -0.95956245      -2.73544028      -0.88501817       0.00000000
Si       0.03399723      -2.16220754       2.94248634       0.00000000
Si      -2.73461859       2.26935990      -1.16644324       0.00000000
Si      -0.86786604       1.76278977       3.18855737       0.00000000
Si      -3.71581416       0.18484263      -0.76769766       0.00000000
Si      -3.44197926      -0.63307827       1.56920477       0.00000000
