10
Lattice="16.28999089631971 0.0 0.0 0.0 16.28999089631971 0.0 0.0 0.0 34.32429715621058" Properties=species:S:1:pos:R:3:initial_magmoms:R:1 pbc="T T T"
Si       1.43083215      -1.25604045      -1.33068510       0.00000000
Si       1.29595095       1.38810348       1.36827022       0.00000000
Si      -1.31075856       1.46298861      -1.29938132       0.00000000
Si      -0.86019345      -1.63914867       1.48974398       0.00000000
Si       1.89475506       0.03528414       3.12107576       0.00000000
Si      -2.62042569      -2.61697221       0.17615239       0.00000000
Si       0.06250473      -2.61824283      -2.67890992       0.00000000
Si      -2.65557951       0.10243152      -2.67304046       0.00000000
Si       2.68402185      -2.67445962       0.06871728       0.00000000
Si       2.77723323       0.09997173      -2.67606100       0.00000000
