10
Lattice="16.28999089631971 0.0 0.0 0.0 16.28999089631971 0.0 0.0 0.0 34.32429715621058" Properties=species:S:1:pos:R:3:initial_magmoms:R:1 pbc="T T T"
Si      -0.98119557      -2.08451727       0.39874558       0.00000000
Si       2.34481518      -0.29452320      -0.24981237       0.00000000
Si      -0.49045932       1.62044775       1.66987799       0.00000000
Si      -3.15241962      -1.30797297      -0.62374148       0.00000000
Si      -0.85761963       3.50665056       0.19688428       0.00000000
Si      -3.59138951       0.61848243       0.71706929       0.00000000
Si       2.99915190       2.03582646       0.82821143       0.00000000
Si       2.73461859      -2.26935990       1.16644324       0.00000000
Si      -2.44118682       0.80985735       2.77113936       0.00000000
Si      -1.07825139       2.49339627      -2.71419531       0.00000000
