10
Lattice="16.28999089631971 0.0 0.0 0.0 16.28999089631971 0.0 0.0 0.0 34.32429715621058" Properties=species:S:1:pos:R:3:initial_magmoms:R:1 pbc="T T T"
Si      -0.51686541      -2.28004614      -0.25365670       0.00000000
Si       2.17767978       0.90254745      -0.15569510       0.00000000
Si      -0.22069692       0.77051700       2.27645731       0.00000000
Si      -1.36834371       0.84243735      -1.80140877       0.00000000
Si       1.52953326       3.19735233      -0.18665563       0.00000000
Si       3.23887554       0.07024248       1.84561849       0.00000000
Si      -2.79710703      -2.35004427      -0.97896383       0.00000000
Si       0.92286108      -3.17879802      -1.86089281       0.00000000
Si       2.99273364       0.42542964      -2.32742892       0.00000000
Si      -0.71381151       3.76382079       0.39956937       0.00000000
