10
Lattice="16.28999089631971 0.0 0.0 0.0 16.28999089631971 0.0 0.0 0.0 34.32429715621058" Properties=species:S:1:pos:R:3:initial_magmoms:R:1 pbc="T T T"
Si      -1.69411113      -0.20417886      -1.61114908       0.00000000
Si       1.97166015      -0.87649974      -0.96664140       0.00000000
Si       0.53108658       2.33842950       0.02337486       0.00000000
Si      -0.97236639      -0.94175748       2.14726058       0.00000000
Si      -2.65437405       1.97260497      -1.11409866       0.00000000
Si       3.26702466      -0.95816151       1.15545946       0.00000000
Si      -2.51501310      -2.41577442       1.00697247       0.00000000
Si      -0.26621118      -3.59872164      -1.21295269       0.00000000
Si      -1.46401488       3.53563047       0.17550023       0.00000000
Si      -2.42983269      -2.53586430      -1.68566718       0.00000000
