10
Lattice="16.28999089631971 0.0 0.0 0.0 16.28999089631971 0.0 0.0 0.0 34.32429715621058" Properties=species:S:1:pos:R:3:initial_magmoms:R:1 pbc="T T T"
Si      -0.91183275      -1.77890058      -1.21683134       0.00000000
Si      -0.34287192      -1.10532537       2.09021357       0.00000000
Si      -1.53196047       1.90809235       0.04002215       0.00000000
Si       1.91487321       1.04166405      -1.20526404       0.00000000
Si      -2.09033280      -0.26813340      -2.57370589       0.00000000
Si       0.31537440       0.97122609       3.24797276       0.00000000
Si      -1.78284276       1.90305711       2.34774891       0.00000000
Si       0.61851501       2.46460111      -2.55565130       0.00000000
Si       2.31857199       1.85528017       2.27189217       0.00000000
Si      -3.39837093       1.07478162      -1.21628215       0.00000000
