10
Lattice="16.28999089631971 0.0 0.0 0.0 16.28999089631971 0.0 0.0 0.0 34.32429715621058" Properties=species:S:1:pos:R:3:initial_magmoms:R:1 pbc="T T T"
Si       2.00319759       0.88405408      -0.97608058       0.00000000
Si       0.89441874      -1.06029981       1.97869386       0.00000000
Si      -2.09821716       0.93183102      -0.90022384       0.00000000
Si      -0.65824632      -2.07655146      -1.15775919       0.00000000
Si       0.95956245       2.73544028       0.88501817       0.00000000
Si      -0.31537440      -0.97122609      -3.24797276       0.00000000
Si      -2.83175586      -2.27810763      -0.16424185       0.00000000
Si       3.70314054      -0.36966897       0.11344187       0.00000000
Si      -1.84733487       0.93686626      -3.20795060       0.00000000
Si      -0.21348045       2.44156868       2.94485472       0.00000000
