10
Lattice="16.28999089631971 0.0 0.0 0.0 16.28999089631971 0.0 0.0 0.0 34.32429715621058" Properties=species:S:1:pos:R:3:initial_magmoms:R:1 pbc="T T T"
Si       1.56843378       1.02982122       1.43019129       0.00000000
Si       0.64814652      -2.29480488       0.03096053       0.00000000
Si      -2.24334477       0.56646846       0.58622500       0.00000000
Si      -0.23609097       0.56544219      -2.31109054       0.00000000
Si      -1.52953326      -3.19735233       0.18665563       0.00000000
Si      -3.43855836      -0.12856068      -1.31146348       0.00000000
Si       1.08178632       3.33192402       1.22946269       0.00000000
Si       0.92960514       0.33692607       3.64383510       0.00000000
Si       1.46320038      -2.77192269      -2.14077329       0.00000000
Si      -0.01383021      -1.48040262      -3.55201755       0.00000000
