10
Lattice="16.28999089631971 0.0 0.0 0.0 16.28999089631971 0.0 0.0 0.0 34.32429715621058" Properties=species:S:1:pos:R:3:initial_magmoms:R:1 pbc="T T T"
Si       0.48664746      -2.30210280       0.20072860       0.00000000
Si      -2.23388028       0.48889941       0.70807632       0.00000000
Si       1.40374188       1.19477280       1.59034855       0.00000000
Si       0.20434176       0.57673509      -2.38361782       0.00000000
Si      -1.08178632      -3.33192402      -1.22946269       0.00000000
Si       2.48033169       1.16629462      -2.55829427       0.00000000
Si       2.80981323      -2.53747701      -0.43286395       0.00000000
Si       1.60862121       3.36464153       0.82306278       0.00000000
Si      -0.15218118      -2.99499795       2.41437241       0.00000000
Si      -2.50647714       2.79869435       0.98452437       0.00000000
