10
Lattice="16.28999089631971 0.0 0.0 0.0 16.28999089631971 0.0 0.0 0.0 34.32429715621058" Properties=species:S:1:pos:R:3:initial_magmoms:R:1 pbc="T T T"
Si       1.14158691       1.50772095       1.48596285       0.00000000
Si      -1.63020220      -1.14162112       1.36718012       0.00000000
Si      -0.39304512       1.18105758      -2.26327677       0.00000000
Si       1.72183671      -2.14082040       0.10386538       0.00000000
Si      -0.19676691      -2.24785873      -2.69380667       0.00000000
Si       2.38754385       0.10968057       2.88891093       0.00000000
Si       2.86469424       2.51765208       0.14453970       0.00000000
Si      -0.33405903      -2.61300464       2.83814183       0.00000000
Si      -1.44888310      -0.45124929      -3.57127349       0.00000000
Si       1.88217918       1.50162849      -3.06193496       0.00000000
