10
Lattice="16.28999089631971 0.0 0.0 0.0 16.28999089631971 0.0 0.0 0.0 34.32429715621058" Properties=species:S:1:pos:R:3:initial_magmoms:R:1 pbc="T T T"
Si       1.35571896      -1.35461450      -1.35574185       0.00000000
Si      -1.35679410       1.36044306      -1.35440320       0.00000000
Si      -1.36467846      -1.34966071       1.36027266       0.00000000
Si       1.36832742       1.36220238       1.34822482       0.00000000
Si      -0.06250473       2.61824283       2.67890992       0.00000000
Si       2.62151712      -0.05621679       2.74762720       0.00000000
Si      -0.00053757      -2.71169429      -2.71337153       0.00000000
Si      -2.71438641      -2.71191752      -0.00010297       0.00000000
Si       2.71407690       0.00291591      -2.71299396       0.00000000
Si      -2.71541268       0.00263898      -2.71313126       0.00000000
