10
Lattice="16.28999089631971 0.0 0.0 0.0 16.28999089631971 0.0 0.0 0.0 34.32429715621058" Properties=species:S:1:pos:R:3:initial_magmoms:R:1 pbc="T T T"
Si      -0.20487933      -2.16986872       0.76728577       0.00000000
Si       1.09703376      -0.18536391      -2.07099195       0.00000000
Si      -2.20729500       0.71356716      -0.56686608       0.00000000
Si       1.46813625       1.34467434       1.36785833       0.00000000
Si       0.01560582       1.51892847      -3.24031844       0.00000000
Si      -1.08273114      -1.81864981       2.96136472       0.00000000
Si       3.54193470       0.85136427       0.35278532       0.00000000
Si       2.07345636      -2.80882443       1.14739325       0.00000000
Si      -2.65005720       2.63322963       0.68229876       0.00000000
Si       3.11570685       0.98220555      -1.94793928       0.00000000
