10
Lattice="16.28999089631971 0.0 0.0 0.0 16.28999089631971 0.0 0.0 0.0 34.32429715621058" Properties=species:S:1:pos:R:3:initial_magmoms:R:1 pbc="T T T"
Si      -1.34325711       1.42092368      -1.32361429       0.00000000
Si       2.22115779       0.11804019      -0.81873792       0.00000000
Si      -0.59201118      -2.27262761      -0.86823358       0.00000000
Si       0.10068849       0.01476532       2.61537561       0.00000000
Si       2.96800542      -2.04543098      -0.12566132       0.00000000
Si       0.08446365      -2.38033709       2.74354260       0.00000000
Si       1.81293039       0.43074906      -3.13758576       0.00000000
Si      -1.35628911      -3.19539095       1.16153486       0.00000000
Si      -0.46540530       1.06970476      -3.51769324       0.00000000
Si      -0.89422326       3.57586425      -0.44178828       0.00000000
