10
Lattice="16.28999089631971 0.0 0.0 0.0 16.28999089631971 0.0 0.0 0.0 34.32429715621058" Properties=species:S:1:pos:R:3:initial_magmoms:R:1 pbc="T T T"
Si      -1.35648459       1.35342207      -1.36071887       0.00000000
Si       1.35581670       1.36280511       1.35828185       0.00000000
Si       1.35749457      -1.35943308      -1.36089049       0.00000000
Si      -1.36552554      -1.36980981       1.36504374       0.00000000
Si       2.71494027       2.71104696      -0.00233405       0.00000000
Si       2.62176147      -0.01024641       2.80161935       0.00000000
Si      -2.71187775      -2.71567332      -0.00291757       0.00000000
Si      -2.71567332       2.71318095      -0.00116703       0.00000000
Si       0.00156384       2.71265967      -2.71814261       0.00000000
Si      -2.71378368      -0.00234576      -2.71807396       0.00000000
