10
Lattice="16.28999089631971 0.0 0.0 0.0 16.28999089631971 0.0 0.0 0.0 34.32429715621058" Properties=species:S:1:pos:R:3:initial_magmoms:R:1 pbc="T T T"
Si      -0.48420396      -2.23256079       0.66874066       0.00000000
Si      -1.57467285       0.30434607      -1.76986472       0.00000000
Si      -0.19557774       1.46513889       1.87963389       0.00000000
Si       2.26530369       0.24316083      -0.75297253       0.00000000
Si      -1.36655181       0.03818376       3.34329138       0.00000000
Si       2.00339307       2.34036801      -1.88986253       0.00000000
Si      -0.23162751      -2.02768146       3.00928146       0.00000000
Si      -0.86724702      -1.19382894      -3.50279648       0.00000000
Si      -1.28822949       2.18600397      -3.18993034       0.00000000
Si       0.58578840      -4.01905251      -0.49464772       0.00000000
