10
Lattice="16.28999089631971 0.0 0.0 0.0 16.28999089631971 0.0 0.0 0.0 34.32429715621058" Properties=species:S:1:pos:R:3:initial_magmoms:R:1 pbc="T T T"
Si       1.17097407       1.42695513      -1.46365750       0.00000000
Si       0.11598480       0.81169812       2.21978786       0.00000000
Si       1.13492430      -2.06586522      -0.33400992       0.00000000
Si      -2.31230034      -0.42836184      -0.44868746       0.00000000
Si      -0.55965924      -3.26028060       0.77943658       0.00000000
Si       1.36655181      -0.03818376      -3.34329138       0.00000000
Si       0.88234785      -2.27074455      -2.67455073       0.00000000
Si      -2.35543626      -2.79520110      -0.68552525       0.00000000
Si       2.07096399      -0.00491958       3.15948467       0.00000000
Si       3.33386253       1.81361457      -0.26134534       0.00000000
