10
Lattice="16.28999089631971 0.0 0.0 0.0 16.28999089631971 0.0 0.0 0.0 34.32429715621058" Properties=species:S:1:pos:R:3:initial_magmoms:R:1 pbc="T T T"
Si      -1.44238176       1.30588785       1.33243564       0.00000000
Si       1.34355033       1.36723014      -1.37661103       0.00000000
Si      -1.37668419      -1.34832330      -1.37396806       0.00000000
Si       1.47181779      -1.29195990       1.46125480       0.00000000
Si       2.68978851       2.70060085       0.00374135       0.00000000
Si       2.69480583      -2.69869914      -0.01451919       0.00000000
Si       2.69672805       0.00832419      -2.73351990       0.00000000
Si      -2.72763018      -2.70790299      -0.01184189       0.00000000
Si      -0.01749546      -2.70808218      -2.73351990       0.00000000
Si      -0.01834254       2.72387112      -2.73396612       0.00000000
