10
Lattice="16.28999089631971 0.0 0.0 0.0 16.28999089631971 0.0 0.0 0.0 34.32429715621058" Properties=species:S:1:pos:R:3:initial_magmoms:R:1 pbc="T T T"
Si      -0.68051475       2.06135289       0.91690546       0.00000000
Si      -0.28644336      -1.88165790       1.42006562       0.00000000
Si      -1.23624810      -0.26577135      -2.01384196       0.00000000
Si       2.26848024       0.41958153      -0.77703387       0.00000000
Si      -0.61757019      -2.50950708      -2.18996003       0.00000000
Si       0.42098247      -3.37983291      -0.31286614       0.00000000
Si       3.29162256       0.15436404       1.30006781       0.00000000
Si      -0.10425600       3.51668520      -0.81595765       0.00000000
Si       2.12389020       2.72039742      -1.35529563       0.00000000
Si      -2.63676456      -2.22099489       1.91148685       0.00000000
