10
Lattice="16.28999089631971 0.0 0.0 0.0 16.28999089631971 0.0 0.0 0.0 34.32429715621058" Properties=species:S:1:pos:R:3:initial_magmoms:R:1 pbc="T T T"
Si      -1.35643505       1.35679410       1.35656563       0.00000000
Si       1.35733004      -1.35695700       1.35656563       0.00000000
Si      -1.35744186      -1.35762489      -1.35811022       0.00000000
Si       1.35700424       1.35870003      -1.35783563       0.00000000
Si      -2.71411830      -0.00159642       2.71323423       0.00000000
Si       2.71363544      -0.00071676       2.71374910       0.00000000
Si      -0.00124619      -2.71409319       2.71357748       0.00000000
Si       0.00006679       2.71489140       2.71371477       0.00000000
Si      -2.71517715       0.00115659      -2.71381775       0.00000000
Si      -2.71460700       2.71459818      -0.00058351       0.00000000
