10
Lattice="16.28999089631971 0.0 0.0 0.0 16.28999089631971 0.0 0.0 0.0 34.32429715621058" Properties=species:S:1:pos:R:3:initial_magmoms:R:1 pbc="T T T"
Si       0.81187731       1.87957278       1.13864672       0.00000000
Si       1.67962932      -1.66660872      -0.15714736       0.00000000
Si       0.79359993       0.31700340      -2.25710736       0.00000000
Si      -2.01176613      -0.85562736       1.02532156       0.00000000
Si      -0.59618142      -2.14642139       2.49356479       0.00000000
Si       2.16710757       0.56174436       2.48504549       0.00000000
Si       0.78516171      -3.44604266       1.14442351       0.00000000
Si       3.54940596      -0.69120262       0.98898584       0.00000000
Si       1.76078610       3.49800057      -0.23715567       0.00000000
Si       0.20531916      -1.59950696      -3.63478244       0.00000000
