10
Lattice="16.28999089631971 0.0 0.0 0.0 16.28999089631971 0.0 0.0 0.0 34.32429715621058" Properties=species:S:1:pos:R:3:initial_magmoms:R:1 pbc="T T T"
Si      -1.35630540       1.35833188       1.36095914       0.00000000
Si       1.35853713      -1.35887989       1.36034131       0.00000000
Si      -1.38005622      -1.34897050      -1.34994104       0.00000000
Si       1.38323277       1.35919525      -1.35846033       0.00000000
Si       0.00128691      -2.64859177      -2.69908232       0.00000000
Si       0.02800251       2.67702367      -2.70485910       0.00000000
Si      -2.71031391       2.71626628       0.00514865       0.00000000
Si       2.71705375      -2.71161778       0.00391297       0.00000000
Si      -2.71138905      -2.71733557       0.00731108       0.00000000
Si       2.71665954       2.71216120       0.00453081       0.00000000
