10
Lattice="16.28999089631971 0.0 0.0 0.0 16.28999089631971 0.0 0.0 0.0 34.32429715621058" Properties=species:S:1:pos:R:3:initial_magmoms:R:1 pbc="T T T"
Si      -1.62927693       0.48160408      -1.61746476       0.00000000
Si      -1.27889532       0.17735575       1.97471224       0.00000000
Si       0.35489394      -2.34906754      -0.19465320       0.00000000
Si       1.97167907       1.37854777      -0.20889779       0.00000000
Si      -0.39247497      -0.07066276      -3.56131944       0.00000000
Si      -3.10754556      -1.16136737       1.39071833       0.00000000
Si      -3.51577296      -0.84865850      -0.92812951       0.00000000
Si       1.37951865       3.52063390       0.47532313       0.00000000
Si       2.57753805      -2.71863877      -0.74061577       0.00000000
Si      -0.11266164      -0.71483941       3.78411858       0.00000000
