10
Lattice="16.28999089631971 0.0 0.0 0.0 16.28999089631971 0.0 0.0 0.0 34.32429715621058" Properties=species:S:1:pos:R:3:initial_magmoms:R:1 pbc="T T T"
Si      -0.79359993      -0.31700340       2.25710736       0.00000000
Si      -0.58828077      -1.91651035      -1.37767508       0.00000000
Si      -0.90741816       2.16029835      -1.03656003       0.00000000
Si       0.88602939      -1.98361212       2.09996000       0.00000000
Si       2.93712514      -0.31783419      -1.69236042       0.00000000
Si      -2.60688870       0.89257797      -2.21697327       0.00000000
Si       0.01827738       1.56256938       3.39575408       0.00000000
Si      -1.75451445      -1.02431520      -3.18708142       0.00000000
Si       0.96718617       3.18099717       2.01995169       0.00000000
Si       0.71835642       2.99819079      -2.47310132       0.00000000
