10
Lattice="16.28999089631971 0.0 0.0 0.0 16.28999089631971 0.0 0.0 0.0 34.32429715621058" Properties=species:S:1:pos:R:3:initial_magmoms:R:1 pbc="T T T"
Si       1.82193713       0.98352504      -1.23443971       0.00000000
Si      -0.96326910      -1.77735303      -1.34499834       0.00000000
Si       0.66670409      -0.96251094       2.16380490       0.00000000
Si      -1.88738451       1.64700045       0.04613188       0.00000000
Si      -1.18465020      -2.56510485       2.03601547       0.00000000
Si       0.47702821       2.25205992      -2.72919504       0.00000000
Si      -2.25102618      -0.45357876      -2.74965233       0.00000000
Si       0.22773420       0.96394446       3.50461567       0.00000000
Si      -2.67624405      -2.64567519       0.02999945       0.00000000
Si      -0.88134813       3.45929553      -1.22448566       0.00000000
