10
Lattice="16.28999089631971 0.0 0.0 0.0 16.28999089631971 0.0 0.0 0.0 34.32429715621058" Properties=species:S:1:pos:R:3:initial_magmoms:R:1 pbc="T T T"
Si       1.35703000      -1.35711990       1.35680590       0.00000000
Si      -1.35697329       1.35723393       1.35697752       0.00000000
Si      -1.35799956      -1.35682668      -1.35752671       0.00000000
Si       1.35701852       1.35762489      -1.35786995       0.00000000
Si      -2.71200807       0.00110772      -2.71333721       0.00000000
Si       2.71321420       0.00115659       2.71381775       0.00000000
Si       0.00034209       2.71365336       2.71347450       0.00000000
Si       2.71496538      -0.00299736      -2.71395504       0.00000000
Si      -0.00068418      -2.71451347       2.71477883       0.00000000
Si      -2.71531494      -0.00019548       2.71429829       0.00000000
