10
Lattice="16.28999089631971 0.0 0.0 0.0 16.28999089631971 0.0 0.0 0.0 34.32429715621058" Properties=species:S:1:pos:R:3:initial_magmoms:R:1 pbc="T T T"
Si      -1.35731538      -1.35641943      -1.35649698       0.00000000
Si       1.35773892      -1.35570267       1.35780131       0.00000000
Si       1.35768324       1.35839052      -1.35666860       0.00000000
Si      -1.35583299       1.35809730       1.36367076       0.00000000
Si      -0.01021383      -2.71124244       2.70159829       0.00000000
Si       2.71287211      -2.71249677       0.00034324       0.00000000
Si      -0.00034209      -2.71365336      -2.71347450       0.00000000
Si       2.71411830       0.00159642      -2.71323423       0.00000000
Si      -2.71544526       0.00140094      -2.71350883       0.00000000
Si      -2.71565703      -2.71384884       0.00082378       0.00000000
