10
Lattice="16.28999089631971 0.0 0.0 0.0 16.28999089631971 0.0 0.0 0.0 34.32429715621058" Properties=species:S:1:pos:R:3:initial_magmoms:R:1 pbc="T T T"
Si      -1.84381623      -1.35498591      -0.51654664       0.00000000
Si       1.61233533      -0.13339881      -1.72373284       0.00000000
Si      -0.83706165       2.19862872       0.23302778       0.00000000
Si       1.58299704      -0.64588221       1.68151393       0.00000000
Si       2.17515746      -2.78796834       0.99729301       0.00000000
Si       2.51101132       2.04561675      -1.76917824       0.00000000
Si       2.91535844      -2.03328522      -1.15168379       0.00000000
Si       1.07981523       3.60171900       0.11773241       0.00000000
Si      -1.57626927       2.34509211       2.48387915       0.00000000
Si      -2.27004408      -1.22414463      -2.81727124       0.00000000
