10
Lattice="16.28999089631971 0.0 0.0 0.0 16.28999089631971 0.0 0.0 0.0 34.32429715621058" Properties=species:S:1:pos:R:3:initial_magmoms:R:1 pbc="T T T"
Si       1.49407770      -1.17434610       1.36833887       0.00000000
Si       1.71546636       1.17983583      -1.09888097       0.00000000
Si      -1.23126336       1.54034982       1.32145529       0.00000000
Si      -0.70213158      -1.95339906      -1.26495163       0.00000000
Si       3.42859607      -0.60160599      -1.23844708       0.00000000
Si       0.14498100      -2.52952749       2.70617372       0.00000000
Si      -2.63969676      -2.62037682      -0.09632433       0.00000000
Si      -2.57080635       0.18780741       2.70260399       0.00000000
Si       2.72347038      -2.59721244       0.01520567       0.00000000
Si      -2.56293828       2.84874633      -0.26638415       0.00000000
