10
Lattice="16.28999089631971 0.0 0.0 0.0 16.28999089631971 0.0 0.0 0.0 34.32429715621058" Properties=species:S:1:pos:R:3:initial_magmoms:R:1 pbc="T T T"
Si      -1.35729909       1.35684297      -1.35711482       0.00000000
Si       1.35759231       1.35656604       1.35711482       0.00000000
Si       1.35759231      -1.35837423      -1.35704617       0.00000000
Si      -1.35855342      -1.35796698       1.35762968       0.00000000
Si      -2.71448415       2.71412577       0.00037757       0.00000000
Si      -0.00110772       2.71251306       2.71618612       0.00000000
Si       2.71508766       2.71427238       0.00030892       0.00000000
Si      -0.00190593       2.71645524      -2.71330288       0.00000000
Si      -2.71515204      -2.71538010       0.00020595       0.00000000
Si      -2.71616202      -0.00210141      -2.71460721       0.00000000
