10
Lattice="16.28999089631971 0.0 0.0 0.0 16.28999089631971 0.0 0.0 0.0 34.32429715621058" Properties=species:S:1:pos:R:3:initial_magmoms:R:1 pbc="T T T"
Si      -1.35946566      -1.35138582      -1.39202265       0.00000000
Si       1.35638685       1.36704051      -1.39614157       0.00000000
Si      -1.45600020       1.35630540       1.40767454       0.00000000
Si       1.35583154      -1.50785127       1.47107155       0.00000000
Si       2.70134856       2.69987202      -0.02371810       0.00000000
Si      -2.71366965      -2.71451673      -0.01657864       0.00000000
Si       2.71420789      -2.71508688      -0.03363783       0.00000000
Si      -2.72194497       2.72935692      -0.03566296       0.00000000
Si      -0.00363267      -2.70948312      -2.75569341       0.00000000
Si       2.71055241       0.00700470      -2.75521287       0.00000000
