10
Lattice="16.28999089631971 0.0 0.0 0.0 16.28999089631971 0.0 0.0 0.0 34.32429715621058" Properties=species:S:1:pos:R:3:initial_magmoms:R:1 pbc="T T T"
Si       1.34025975       1.35071985      -1.37757211       0.00000000
Si      -1.37481084      -1.36430379      -1.37788103       0.00000000
Si      -1.33957557       1.31398398       1.49338236       0.00000000
Si       1.30891779      -1.44265869       1.43204480       0.00000000
Si      -2.12885865      -0.48969369       2.92388256       0.00000000
Si      -0.48707100      -2.40227001       2.80831259       0.00000000
Si       2.68938845       2.71686968      -0.00229973       0.00000000
Si      -2.73895173       2.68675435       0.00099541       0.00000000
Si       2.68935912      -2.74203054      -0.00532027       0.00000000
Si       2.69882361      -0.00635310      -2.73674639       0.00000000
