10
Lattice="16.28999089631971 0.0 0.0 0.0 16.28999089631971 0.0 0.0 0.0 34.32429715621058" Properties=species:S:1:pos:R:3:initial_magmoms:R:1 pbc="T T T"
Si       1.33957557      -1.31398398      -1.49338236       0.00000000
Si      -0.78928308      -1.80367767       1.43050021       0.00000000
Si       0.88852176       1.92128237       1.25057214       0.00000000
Si      -1.39937616       1.37277037      -1.49238695       0.00000000
Si      -2.61734688      -2.61979038      -0.03487351       0.00000000
Si      -1.05169869       3.46919075       1.18611108       0.00000000
Si       2.60149671       2.78960453      -0.12442565       0.00000000
Si       2.64849336      -2.75664267      -0.06133755       0.00000000
Si      -2.84170905       2.69443835      -0.12672538       0.00000000
Si      -0.03523527      -2.67828777      -2.87126339       0.00000000
