10
Lattice="16.28999089631971 0.0 0.0 0.0 16.28999089631971 0.0 0.0 0.0 34.32429715621058" Properties=species:S:1:pos:R:3:initial_magmoms:R:1 pbc="T T T"
Si      -0.73640574      -1.53477864       1.63888313       0.00000000
Si       2.28524265      -0.55394145      -0.25125400       0.00000000
Si      -0.24304680       2.36604824       0.26827886       0.00000000
Si      -1.12286970      -0.99763218      -2.09199843       0.00000000
Si       0.04486266      -3.56366556       0.56336500       0.00000000
Si       0.49458069      -0.83168595       3.49074865       0.00000000
Si       1.85730435       3.07379987      -0.55591663       0.00000000
Si       2.25038205      -2.92016169       0.08361403       0.00000000
Si      -3.35101590      -0.20134440      -1.55266045       0.00000000
Si      -0.97827966      -3.29844807      -1.51373667       0.00000000
