10
Lattice="16.28999089631971 0.0 0.0 0.0 16.28999089631971 0.0 0.0 0.0 34.32429715621058" Properties=species:S:1:pos:R:3:initial_magmoms:R:1 pbc="T T T"
Si       0.14459004      -2.30081589       0.57826176       0.00000000
Si      -2.22814620       0.79628778       0.53933798       0.00000000
Si       0.41047542      -0.54534033      -2.43314781       0.00000000
Si       1.12286970       0.99763218       2.09199843       0.00000000
Si       3.18192570      -1.69849314      -0.59669392       0.00000000
Si      -2.80440495      -0.65904453       2.27220109       0.00000000
Si      -2.12389020      -2.72039742       1.35529563       0.00000000
Si       0.38646396      -0.53714646       3.73088156       0.00000000
Si       1.16773236      -2.56603338       2.65536344       0.00000000
Si       3.40811235       0.44369073       1.84074444       0.00000000
