10
Lattice="16.28999089631971 0.0 0.0 0.0 16.28999089631971 0.0 0.0 0.0 34.32429715621058" Properties=species:S:1:pos:R:3:initial_magmoms:R:1 pbc="T T T"
Si       1.45575096       1.43021313      -1.23066404       0.00000000
Si      -2.24842303       0.61092387      -0.65360363       0.00000000
Si       0.38851487      -1.99461276      -1.33785888       0.00000000
Si       0.83057334       0.78999984       2.20150643       0.00000000
Si      -1.47710782      -2.27403513       2.06055736       0.00000000
Si      -0.88255636       2.57144166       2.34107253       0.00000000
Si       0.12544766      -1.20560661       3.45515918       0.00000000
Si       3.63898563       0.40428522      -0.76659928       0.00000000
Si       1.00691259       3.67386741      -0.10949457       0.00000000
Si      -2.60768269      -0.32938380      -2.77268395       0.00000000
