10
Lattice="16.28999089631971 0.0 0.0 0.0 16.28999089631971 0.0 0.0 0.0 34.32429715621058" Properties=species:S:1:pos:R:3:initial_magmoms:R:1 pbc="T T T"
Si      -1.30215907       1.36138788      -1.39380065       0.00000000
Si       1.35101115       1.35873261       1.35747866       0.00000000
Si      -1.36163223      -1.35324288       1.35868001       0.00000000
Si       1.28513439      -1.33646418      -1.49101741       0.00000000
Si      -0.79495200      -2.14057116      -2.58484241       0.00000000
Si      -2.50808170      -0.35912934      -2.44527631       0.00000000
Si       0.49809933       2.01332997      -2.91557063       0.00000000
Si       2.39000364       0.34836165      -2.77552742       0.00000000
Si       2.69215056      -2.70635544      -0.02356021       0.00000000
Si       2.70923877       0.00285075       2.71603510       0.00000000
