10
Lattice="16.28999089631971 0.0 0.0 0.0 16.28999089631971 0.0 0.0 0.0 34.32429715621058" Properties=species:S:1:pos:R:3:initial_magmoms:R:1 pbc="T T T"
Si       1.35740660      -1.35449721      -1.35646266       0.00000000
Si      -1.35895809      -1.35630540       1.35786995       0.00000000
Si       1.35667518       1.35900954       1.35783563       0.00000000
Si      -1.35612363       1.35713619      -1.36277833       0.00000000
Si      -0.01043153      -2.71456560      -2.69319913       0.00000000
Si       2.71265315      -2.71220355       0.00061784       0.00000000
Si       2.71389119       0.00122175       2.71505342       0.00000000
Si      -0.00078614      -2.71410948       2.71501910       0.00000000
Si       2.71392377       2.71637379      -0.00072081       0.00000000
Si      -2.71655040       0.00206883       2.71491613       0.00000000
