10
Lattice="16.28999089631971 0.0 0.0 0.0 16.28999089631971 0.0 0.0 0.0 34.32429715621058" Properties=species:S:1:pos:R:3:initial_magmoms:R:1 pbc="T T T"
Si       1.35666378      -1.35733167      -1.35738941       0.00000000
Si      -1.35690487       1.35827649      -1.35742374       0.00000000
Si      -1.35324940      -1.36381509       1.36415130       0.00000000
Si       1.37499003       1.35467640       1.37310995       0.00000000
Si      -0.11761380       2.53521270       2.77707746       0.00000000
Si       2.71363707      -2.71150308       0.00429054       0.00000000
Si      -2.71335104      -2.71391400      -0.00010297       0.00000000
Si      -2.71340671       0.00017919      -2.71457288       0.00000000
Si       0.00035838      -2.71357191      -2.71457288       0.00000000
Si       2.71417464       2.71412577       0.00157892       0.00000000
