10
Lattice="16.28999089631971 0.0 0.0 0.0 16.28999089631971 0.0 0.0 0.0 34.32429715621058" Properties=species:S:1:pos:R:3:initial_magmoms:R:1 pbc="T T T"
Si       0.14615388       2.08500597       1.19283864       0.00000000
Si       0.36716031      -1.88620281       1.47299371       0.00000000
Si      -2.34916950      -0.55083006      -0.32803749       0.00000000
Si      -0.22063176      -1.01325429      -2.91107959       0.00000000
Si      -2.11735791       0.46371114      -2.78009800       0.00000000
Si      -1.19223252       3.33189144      -0.42778395       0.00000000
Si       0.85761963      -3.50665056      -0.19688428       0.00000000
Si      -3.56278101       0.86048667       1.22029809       0.00000000
Si      -2.73376988      -2.88816813       0.52018501       0.00000000
Si      -1.58356719      -2.69679321       2.57425508       0.00000000
