10
Lattice="16.28999089631971 0.0 0.0 0.0 16.28999089631971 0.0 0.0 0.0 34.32429715621058" Properties=species:S:1:pos:R:3:initial_magmoms:R:1 pbc="T T T"
Si      -1.80345678      -1.31382108      -0.69074254       0.00000000
Si      -0.80591843       2.18150793      -0.22774184       0.00000000
Si       1.48704894      -0.74930742      -1.78153499       0.00000000
Si       0.59342841      -0.21872583       2.35856107       0.00000000
Si       2.86184349      -1.36474362       0.12998619       0.00000000
Si       1.13712345      -3.14905248       0.51263366       0.00000000
Si      -0.58055442      -3.27938877      -1.11962487       0.00000000
Si       0.44435862       3.23698590       1.45507642       0.00000000
Si       3.59756505       0.96694182       0.20450428       0.00000000
Si      -3.05988821       2.11693437       0.32659587       0.00000000
