10
Lattice="16.28999089631971 0.0 0.0 0.0 16.28999089631971 0.0 0.0 0.0 34.32429715621058" Properties=species:S:1:pos:R:3:initial_magmoms:R:1 pbc="T T T"
Si      -2.31709679       0.15721479       0.48644421       0.00000000
Si       0.29976858       1.21205745      -2.02465412       0.00000000
Si       0.44883837      -2.24365428      -1.12116947       0.00000000
Si       1.11671208       1.27003356       1.98027278       0.00000000
Si      -1.88946895      -1.10242575       2.45056710       0.00000000
Si      -0.68354632       0.61809147       3.50204276       0.00000000
Si      -0.17633925      -2.88386757       2.31100100       0.00000000
Si       3.00861639      -0.39493476       2.12031599       0.00000000
Si      -1.00691259      -3.67386741       0.10949457       0.00000000
Si      -0.95050847       0.15657948      -3.70747238       0.00000000
