10
Lattice="16.28999089631971 0.0 0.0 0.0 16.28999089631971 0.0 0.0 0.0 34.32429715621058" Properties=species:S:1:pos:R:3:initial_magmoms:R:1 pbc="T T T"
Si      -1.45575096      -1.43021313       1.23066404       0.00000000
Si      -0.59342841       0.21872583      -2.35856107       0.00000000
Si       2.18323467      -1.02592791       0.46406476       0.00000000
Si      -0.44883837       2.24365428       1.12116947       0.00000000
Si       2.26841508      -1.14601779      -2.22857489       0.00000000
Si       0.54369504      -2.93032665      -1.84592741       0.00000000
Si      -0.62517762      -0.64021329       3.43217047       0.00000000
Si      -0.14906979       3.45571173      -0.90348465       0.00000000
Si      -1.06723609      -3.42482589      -0.10719484       0.00000000
Si      -1.39934684       2.40023376      -2.58630291       0.00000000
