10
Lattice="16.28999089631971 0.0 0.0 0.0 16.28999089631971 0.0 0.0 0.0 34.32429715621058" Properties=species:S:1:pos:R:3:initial_magmoms:R:1 pbc="T T T"
Si      -0.84647727      -1.70429238      -1.43695318       0.00000000
Si      -1.48569687       1.98454554      -0.26264967       0.00000000
Si       1.80783162       1.02514599      -1.51651694       0.00000000
Si      -0.78986952      -0.67137606       2.43596241       0.00000000
Si       0.20328291       1.49716503       2.78404530       0.00000000
Si       2.37679245       1.69872120       1.79052796       0.00000000
Si      -2.09497219      -0.18836127      -2.83995961       0.00000000
Si      -0.96772374       3.19381740       1.75012824       0.00000000
Si       3.22102170      -0.53159157       2.01301818       0.00000000
Si       0.62933157       2.53591317      -2.87339149       0.00000000
