10
Lattice="16.28999089631971 0.0 0.0 0.0 16.28999089631971 0.0 0.0 0.0 34.32429715621058" Properties=species:S:1:pos:R:3:initial_magmoms:R:1 pbc="T T T"
Si       0.54068139      -2.22635430      -0.30328966       0.00000000
Si      -2.30663142       0.01049076       0.18517969       0.00000000
Si       1.19521359       0.69502914       1.89768848       0.00000000
Si       1.03017960       1.51394373      -1.48538479       0.00000000
Si       3.20246739       0.69400287      -0.99962706       0.00000000
Si       0.37150974       3.53165571      -0.42517531       0.00000000
Si       0.72734850       2.99190285       1.84486335       0.00000000
Si       1.24460487      -2.22954714      -2.56189832       0.00000000
Si      -2.75394946       2.08958346       1.10153596       0.00000000
Si       3.43855836       0.12856068       1.31146348       0.00000000
