10
Lattice="10.86 0.0 0.0 0.0 10.86 0.0 0.0 0.0 10.86" Properties=species:S:1:pos:R:3:initial_magmoms:R:1 pbc="T T T"
Si       1.25634996      -1.08551130      -1.41629604       0.00000000
Si      -1.45865004      -1.08551130       1.29870396       0.00000000
Si      -1.45865004       1.62948870      -1.41629604       0.00000000
Si       1.23535758       1.48584348       1.81853958       0.00000000
Si       2.53370316      -2.41820706      -0.07655214       0.00000000
Si       1.29010284      -0.25722996       3.26585178       0.00000000
Si      -0.18709608      -2.16621162       2.79237750       0.00000000
Si       2.30934642       2.68252860      -0.09158238       0.00000000
Si      -0.10115004      -2.44301130      -2.77379604       0.00000000
Si      -2.81615004      -2.44301130      -0.05879604       0.00000000
