10
Lattice="10.86 0.0 0.0 0.0 10.86 0.0 0.0 0.0 10.86" Properties=species:S:1:pos:R:3:initial_magmoms:R:1 pbc="T T T"
Si      -0.05474526       1.74307344      -1.44731220       0.00000000
Si      -1.47719892      -1.90898166      -0.47347428       0.00000000
Si      -1.62189756       0.38905950       2.05862160       0.00000000
Si       1.20826188      -2.13694392       1.73451576       0.00000000
Si      -2.74875288       1.88671866       0.74785218       0.00000000
Si      -2.74875288      -0.82828134      -1.96714782       0.00000000
Si      -1.29010284       0.25722996      -3.26585178       0.00000000
Si      -1.53348630       3.21234456      -0.43047954       0.00000000
Si      -0.03375288       1.88671866       3.46285218       0.00000000
Si      -0.03375288      -3.54328134      -1.96714782       0.00000000
