10
Lattice="10.86 0.0 0.0 0.0 10.86 0.0 0.0 0.0 10.86" Properties=species:S:1:pos:R:3:initial_magmoms:R:1 pbc="T T T"
Si      -1.27735320       1.33269576      -1.33974390       0.00000000
Si      -1.27735320      -1.38230424       1.37525610       0.00000000
Si       1.43764680      -1.38230424      -1.33974390       0.00000000
Si      -2.53370316       2.41820706       0.07655214       0.00000000
Si       2.64416022       0.14968338       2.40343746       0.00000000
Si      -2.63485320      -0.02480424      -2.69724390       0.00000000
Si      -2.63485320      -2.73980424       0.01775610       0.00000000
Si       0.08014680       2.69019576      -2.69724390       0.00000000
Si       0.08014680      -2.73980424      -2.69724390       0.00000000
Si       0.08014680      -2.73980424       2.73275610       0.00000000
