10
Lattice="16.28999089631971 0.0 0.0 0.0 16.28999089631971 0.0 0.0 0.0 34.185847837958455" Properties=species:S:1:pos:R:3:initial_magmoms:R:1 pbc="T T T"
Si       1.80898169      -0.76706352       1.32046330       0.00000000
Si      -0.45272191       2.27436093      -0.47826028       0.00000000
Si      -2.10116306      -0.88229898       0.69643448       0.00000000
Si       0.60355427      -0.84753612      -2.15555565       0.00000000
Si      -2.13590963       1.59391134      -2.05552781       0.00000000
Si      -0.30694107       0.89870301      -3.45403744       0.00000000
Si      -1.39506403      -3.10923972       1.34880338       0.00000000
Si      -3.52973090      -0.01314603      -1.06512906       0.00000000
Si       2.23149542      -2.99693646       0.55008478       0.00000000
Si       1.12926515      -0.73968003       3.53546817       0.00000000
