10
Lattice="16.28999089631971 0.0 0.0 0.0 16.28999089631971 0.0 0.0 0.0 34.185847837958455" Properties=species:S:1:pos:R:3:initial_magmoms:R:1 pbc="T T T"
Si       1.38235311      -1.24185416       1.48281540       0.00000000
Si      -0.96627393      -1.73640227      -1.32509005       0.00000000
Si       1.80353106       0.86873430      -1.31818451       0.00000000
Si      -1.32436071       1.46318898       1.44115650       0.00000000
Si       2.53881279      -2.67859958       0.07536274       0.00000000
Si       0.63687384      -3.53441102      -1.18045200       0.00000000
Si       3.38111982      -0.95648364      -1.40098268       0.00000000
Si      -2.71989243      -2.65880723       0.08591592       0.00000000
Si       2.68192044       2.73037179       0.11036907       0.00000000
Si       0.04287528      -2.60249270       2.83507155       0.00000000
