10
Lattice="16.28999089631971 0.0 0.0 0.0 16.28999089631971 0.0 0.0 0.0 34.185847837958455" Properties=species:S:1:pos:R:3:initial_magmoms:R:1 pbc="T T T"
Si      -1.29092127       1.87045038      -0.52266772       0.00000000
Si       1.25449616       0.74165112       1.82207252       0.00000000
Si      -0.97953792      -1.99781279       0.70723722       0.00000000
Si      -1.37360931      -2.77777799      -1.43946430       0.00000000
Si      -2.14319778      -0.80515606      -2.60527073       0.00000000
Si       0.86061699      -3.14695826       1.75636729       0.00000000
Si       3.42691427      -0.12577509       1.48376918       0.00000000
Si      -2.87655729       2.10489606       1.18054054       0.00000000
Si       0.14595351       2.56156992      -2.94244594       0.00000000
Si      -2.86399770      -1.66867104       2.13784738       0.00000000
