10
Lattice="16.28999089631971 0.0 0.0 0.0 16.28999089631971 0.0 0.0 0.0 34.185847837958455" Properties=species:S:1:pos:R:3:initial_magmoms:R:1 pbc="T T T"
Si       0.39996837       2.38902624       0.12423144       0.00000000
Si      -0.69403545      -1.29230036      -1.99047210       0.00000000
Si      -1.43860248      -0.36911511       2.04315252       0.00000000
Si       2.74382244      -0.44755146      -0.07715750       0.00000000
Si       0.69548526       2.51024013      -2.25971999       0.00000000
Si      -1.81669338      -2.60295371       1.51935667       0.00000000
Si      -0.16979067       0.58373586      -3.47889056       0.00000000
Si       0.81546111      -3.29158088      -1.99348046       0.00000000
Si       2.43255312       2.94892983       1.37348558       0.00000000
Si      -1.53857421       3.74090076       0.93488090       0.00000000
