10
Lattice="16.28999089631971 0.0 0.0 0.0 16.28999089631971 0.0 0.0 0.0 34.185847837958455" Properties=species:S:1:pos:R:3:initial_magmoms:R:1 pbc="T T T"
Si      -1.25449616      -0.74165112      -1.82207252       0.00000000
Si       0.69364449       2.22795072       0.21779816       0.00000000
Si       2.17241811      -0.86742621      -0.33830334       0.00000000
Si      -1.19987742      -0.26158482       2.17046069       0.00000000
Si      -2.67223508       1.61078778       1.22737518       0.00000000
Si       3.11464800      -0.22478571       1.75421358       0.00000000
Si       2.17999296       2.01383496       2.08301324       0.00000000
Si      -2.54541743       1.12879926      -2.34474024       0.00000000
Si       1.79432721      -3.10126481      -0.86209919       0.00000000
Si      -2.23403408      -2.73946391      -1.11483531       0.00000000
