10
Lattice="16.28999089631971 0.0 0.0 0.0 16.28999089631971 0.0 0.0 0.0 34.185847837958455" Properties=species:S:1:pos:R:3:initial_magmoms:R:1 pbc="T T T"
Si      -1.34527707      -1.35120663      -1.34101584       0.00000000
Si      -1.35651717       1.35728280       1.35823868       0.00000000
Si       1.35910728      -1.35734796       1.35827287       0.00000000
Si       1.36425492       1.35514881      -1.38445582       0.00000000
Si      -2.68840386      -0.04629618      -2.68615450       0.00000000
Si       0.00895950      -2.68076385      -2.71294254       0.00000000
Si      -2.71303434       0.00053757       2.71545178       0.00000000
Si       0.00180819      -2.71422351       2.71524667       0.00000000
Si      -0.13214448       2.59491555      -2.82678148       0.00000000
Si      -2.71195920       2.71850778       0.00341859       0.00000000
