10
Lattice="16.28999089631971 0.0 0.0 0.0 16.28999089631971 0.0 0.0 0.0 34.185847837958455" Properties=species:S:1:pos:R:3:initial_magmoms:R:1 pbc="T T T"
Si       1.34400645       1.33305957      -1.36900723       0.00000000
Si      -1.35913986       1.35252612       1.35417056       0.00000000
Si       1.35544203      -1.36122498       1.35482009       0.00000000
Si      -1.36412460      -1.35452979      -1.37724944       0.00000000
Si      -0.04613328       2.65781124      -2.75243747       0.00000000
Si       2.57981472      -0.12359223      -2.83020006       0.00000000
Si      -0.00125433       2.71251306       2.71203320       0.00000000
Si       2.71336014      -0.00236205       2.71175971       0.00000000
Si      -2.71648945      -0.00306252       2.71179390       0.00000000
Si      -0.00107514      -2.71797021       2.71203320       0.00000000
