10
Lattice="16.28999089631971 0.0 0.0 0.0 16.28999089631971 0.0 0.0 0.0 34.185847837958455" Properties=species:S:1:pos:R:3:initial_magmoms:R:1 pbc="T T T"
Si       1.29916008      -1.43775540       1.31167753       0.00000000
Si       1.36122498       1.34825814      -1.35693962       0.00000000
Si      -1.32975270       1.31222466       1.42893505       0.00000000
Si      -1.35496962      -1.36293543      -1.35970867       0.00000000
Si      -2.32140645      -0.50942088       2.63788405       0.00000000
Si      -2.70963462       2.70141957       0.00304254       0.00000000
Si      -2.70450164      -2.71878471      -0.03131425       0.00000000
Si       0.00231318       2.70927135      -2.71514411       0.00000000
Si       2.72337849       2.70505224       0.02198151       0.00000000
Si      -2.71363707      -0.00814500      -2.71668247       0.00000000
