10
Lattice="16.28999089631971 0.0 0.0 0.0 16.28999089631971 0.0 0.0 0.0 34.185847837958455" Properties=species:S:1:pos:R:3:initial_magmoms:R:1 pbc="T T T"
Si      -1.57874535       1.59505164      -0.61965302       0.00000000
Si      -0.18510327      -1.86755076      -1.40838935       0.00000000
Si      -0.07237647      -1.28378232       2.00735992       0.00000000
Si       2.00178036       1.32888933      -0.38462519       0.00000000
Si       2.08445211      -2.27286225       1.31748913       0.00000000
Si       2.01891744      -2.45892663      -1.06793230       0.00000000
Si      -0.16736346       2.80958517      -2.06711682       0.00000000
Si      -1.89649809       2.70055620       1.41160282       0.00000000
Si      -0.08682570       0.41633982       3.66954514       0.00000000
Si       0.81091620       1.04690943      -3.51574293       0.00000000
