10
Lattice="16.28999089631971 0.0 0.0 0.0 16.28999089631971 0.0 0.0 0.0 34.185847837958455" Properties=species:S:1:pos:R:3:initial_magmoms:R:1 pbc="T T T"
Si       1.44001971       0.09389556      -1.77681043       0.00000000
Si       1.51506774      -0.47583090       1.74262457       0.00000000
Si      -1.86660594      -1.45160190      -0.04673208       0.00000000
Si       0.17339076       2.08821510      -1.98247261       0.00000000
Si      -1.71255141       2.61589707      -0.30709164       0.00000000
Si      -0.06929766      -1.33776738       3.20251291       0.00000000
Si      -0.96278787      -2.97320193       1.71989097       0.00000000
Si       3.24969210      -2.19032082       0.48113189       0.00000000
Si      -2.56938260      -1.55266506      -2.56968325       0.00000000
Si       3.52496052       1.08678735      -1.42575577       0.00000000
