10
Lattice="16.28999089631971 0.0 0.0 0.0 16.28999089631971 0.0 0.0 0.0 34.185847837958455" Properties=species:S:1:pos:R:3:initial_magmoms:R:1 pbc="T T T"
Si       1.35653346       1.35620766       1.35772589       0.00000000
Si       1.35702216      -1.35755973      -1.35704217       0.00000000
Si      -1.35759231       1.35731538      -1.35676869       0.00000000
Si      -1.35760860      -1.35754344       1.35827287       0.00000000
Si      -0.00177561       2.71334385      -2.71415272       0.00000000
Si       2.71352304      -0.00162900      -2.71483644       0.00000000
Si      -2.71500543       2.71437564       0.00064953       0.00000000
Si       2.71458189       2.71483203       0.00010256       0.00000000
Si      -2.71547784      -0.00267156      -2.71463132       0.00000000
Si      -0.00089595      -2.71642266      -2.71398179       0.00000000
