10
Lattice="16.28999089631971 0.0 0.0 0.0 16.28999089631971 0.0 0.0 0.0 34.185847837958455" Properties=species:S:1:pos:R:3:initial_magmoms:R:1 pbc="T T T"
Si       1.39535742      -1.27674754       1.36340416       0.00000000
Si      -1.34371675       1.41513348       1.36053597       0.00000000
Si      -1.06401882      -1.79206520      -1.19553652       0.00000000
Si       0.68047077       1.79827428      -1.58916904       0.00000000
Si      -0.22968574       0.26514744      -3.43982094       0.00000000
Si      -2.43073094      -0.23825102      -2.48278760       0.00000000
Si       2.57346651       2.73942903      -0.13199163       0.00000000
Si       0.01017962      -2.63158664       2.71300066       0.00000000
Si       2.68114341      -2.68773827      -0.03232616       0.00000000
Si      -2.78215511       2.62297182      -0.03725234       0.00000000
