10
Lattice="16.28999089631971 0.0 0.0 0.0 16.28999089631971 0.0 0.0 0.0 34.185847837958455" Properties=species:S:1:pos:R:3:initial_magmoms:R:1 pbc="T T T"
Si       1.00598895       0.00996948      -2.26495043       0.00000000
Si      -0.68047077      -1.79827428       1.58916904       0.00000000
Si      -1.75864234       1.81468971       0.22545579       0.00000000
Si       1.89299574       0.94115475       1.45717740       0.00000000
Si      -0.91015651      -1.53312683      -1.85065191       0.00000000
Si      -2.02418752      -0.38314080       2.94970501       0.00000000
Si       1.40247126       2.28740922      -2.61060373       0.00000000
Si       0.68877378       2.35022346       2.93619817       0.00000000
Si      -3.11120171      -2.03652530      -0.89361856       0.00000000
Si      -3.46262588       0.82469754       1.55191670       0.00000000
