10
Lattice="16.28999089631971 0.0 0.0 0.0 16.28999089631971 0.0 0.0 0.0 34.185847837958455" Properties=species:S:1:pos:R:3:initial_magmoms:R:1 pbc="T T T"
Si       2.11007628       1.05431716      -0.10707014       0.00000000
Si      -1.88825535       1.36538937       0.40951250       0.00000000
Si      -0.66038031      -1.18529298      -1.97751566       0.00000000
Si       0.01679499      -1.05353946       2.16656350       0.00000000
Si      -1.19531133       2.45580614       2.41769288       0.00000000
Si       1.77171669       3.24334619      -1.07323111       0.00000000
Si       3.67963407      -0.47146518      -1.11558740       0.00000000
Si      -3.73863645      -0.07812684       1.09555448       0.00000000
Si      -1.59190767      -2.78242974       2.22799551       0.00000000
Si       0.80806545      -2.94642117      -2.45485292       0.00000000
