10
Lattice="16.28999089631971 0.0 0.0 0.0 16.28999089631971 0.0 0.0 0.0 34.185847837958455" Properties=species:S:1:pos:R:3:initial_magmoms:R:1 pbc="T T T"
Si       1.60870266       1.72889028      -0.06143200       0.00000000
Si      -1.68989202       0.33352146      -1.61945289       0.00000000
Si       1.26662895      -1.99431954       0.20566218       0.00000000
Si      -1.88594217       0.52768197       1.67538097       0.00000000
Si      -0.17339076      -2.08821510       1.98247261       0.00000000
Si       3.35156976      -1.00142775       0.55671684       0.00000000
Si      -2.14672878       2.70430290      -1.13244103       0.00000000
Si       0.46758816       3.26630790       1.52209154       0.00000000
Si      -1.94212638       2.89075824       1.21841848       0.00000000
Si       3.39794739       1.16590788       1.48014548       0.00000000
