10
Lattice="16.28999089631971 0.0 0.0 0.0 16.28999089631971 0.0 0.0 0.0 34.185847837958455" Properties=species:S:1:pos:R:3:initial_magmoms:R:1 pbc="T T T"
Si       1.35741312      -1.35492075      -1.35666613       0.00000000
Si      -1.35609363      -1.35671102       1.35731566       0.00000000
Si       1.35887922       1.35881406       1.35697380       0.00000000
Si      -1.35552348       1.36042677      -1.35888821       0.00000000
Si      -0.01697418       2.70115893      -2.71756447       0.00000000
Si      -0.01397682      -2.70854549      -2.71049483       0.00000000
Si       0.00083079      -2.71328009       2.71394760       0.00000000
Si      -2.71389771       0.00105885       2.71425528       0.00000000
Si       2.71490769      -2.71516182      -0.00085465       0.00000000
Si       0.00154755       2.71650411       2.71374249       0.00000000
