10
Lattice="16.28999089631971 0.0 0.0 0.0 16.28999089631971 0.0 0.0 0.0 34.185847837958455" Properties=species:S:1:pos:R:3:initial_magmoms:R:1 pbc="T T T"
Si       1.22543154      -0.57157375      -1.94315886       0.00000000
Si       1.21878522       2.08477791       0.16262217       0.00000000
Si       1.23769791      -1.36517530       1.61347036       0.00000000
Si      -2.74382244       0.44755146       0.07715750       0.00000000
Si       2.24977932       0.80826093       1.89020495       0.00000000
Si      -0.63566838      -1.70421812       2.96172677       0.00000000
Si       2.96469855      -1.66425875      -0.73301336       0.00000000
Si      -2.34385407       2.83657770       0.20138894       0.00000000
Si      -0.31126932       3.39648129       1.45064308       0.00000000
Si      -0.20483046      -1.83742145      -3.29021876       0.00000000
