10
Lattice="16.28999089631971 0.0 0.0 0.0 16.28999089631971 0.0 0.0 0.0 34.185847837958455" Properties=species:S:1:pos:R:3:initial_magmoms:R:1 pbc="T T T"
Si       1.83420513       1.04912406       1.05887304       0.00000000
Si      -1.55004237      -1.18008329       1.38435668       0.00000000
Si       0.77107086      -1.69623194      -1.54092795       0.00000000
Si      -0.99914715       1.79260454      -1.38011763       0.00000000
Si      -2.49926067      -2.41636397      -0.40294881       0.00000000
Si       0.73754604       2.73051758       2.28081267       0.00000000
Si      -0.00922014      -0.72811724      -3.63105186       0.00000000
Si       0.19194507       1.65337391      -3.34840311       0.00000000
Si       2.76164370       2.54435546      -0.48964417       0.00000000
Si      -0.60447303      -3.61618763      -1.15449091       0.00000000
