10
Lattice="16.28999089631971 0.0 0.0 0.0 16.28999089631971 0.0 0.0 0.0 34.185847837958455" Properties=species:S:1:pos:R:3:initial_magmoms:R:1 pbc="T T T"
Si       1.09665909      -1.68139353      -1.22193963       0.00000000
Si      -0.49208832      -1.26674950       1.93081776       0.00000000
Si      -2.06045694       0.85589289      -0.83064819       0.00000000
Si       1.59321087       1.75018131       0.58044183       0.00000000
Si       2.02409766      -0.18616212      -2.77045684       0.00000000
Si      -0.73754604      -2.73051758      -2.28081267       0.00000000
Si       0.37279665       0.22685454       3.67997183       0.00000000
Si      -2.37708567       2.91462309       0.17325397       0.00000000
Si       2.40344289       0.99685026       2.74098863       0.00000000
Si       2.42533665      -3.06039320       0.26203467       0.00000000
