10
Lattice="16.28999089631971 0.0 0.0 0.0 16.28999089631971 0.0 0.0 0.0 34.185847837958455" Properties=species:S:1:pos:R:3:initial_magmoms:R:1 pbc="T T T"
Si      -1.31740488       1.12368420      -1.56718034       0.00000000
Si      -1.93903128      -0.65823003       1.12741263       0.00000000
Si       0.82935648       1.89768726       1.11103418       0.00000000
Si       1.63808982      -1.87255179      -0.27406574       0.00000000
Si      -0.60683508      -2.06448057       2.48116612       0.00000000
Si       2.15894628       0.62853336       2.49727450       0.00000000
Si      -1.30295565      -0.57643794      -3.22936557       0.00000000
Si      -0.10603161       3.11779197      -1.77550902       0.00000000
Si       3.45098763      -0.86337000       0.99733199       0.00000000
Si       0.69572961      -3.50195904       1.11578943       0.00000000
