10
Lattice="16.28999089631971 0.0 0.0 0.0 16.28999089631971 0.0 0.0 0.0 34.185847837958455" Properties=species:S:1:pos:R:3:initial_magmoms:R:1 pbc="T T T"
Si      -1.32958980       1.26915390      -1.38624032       0.00000000
Si      -1.38803832      -1.31888727       1.34386694       0.00000000
Si       1.32525666       1.39242033       1.34085858       0.00000000
Si       1.29204135      -1.49190336      -1.49994252       0.00000000
Si      -2.15894628      -0.62853336      -2.49727450       0.00000000
Si       0.52720956       2.11589181      -2.62944356       0.00000000
Si       2.22068538       0.36251766      -2.67108400       0.00000000
Si      -0.52085646      -2.50108515      -2.77134024       0.00000000
Si      -0.03427416      -2.67804342       2.70077237       0.00000000
Si       2.68102449       0.03846069       2.69981517       0.00000000
