10
Lattice="16.28999089631971 0.0 0.0 0.0 16.28999089631971 0.0 0.0 0.0 34.185847837958455" Properties=species:S:1:pos:R:3:initial_magmoms:R:1 pbc="T T T"
Si      -1.34988714      -1.35470898      -1.38237390       0.00000000
Si       1.36430379       1.36101321      -1.37871601       0.00000000
Si      -1.33436277       1.42560306       1.40873120       0.00000000
Si       1.30494303      -1.38758220       1.48735870       0.00000000
Si       2.70093087      -2.69644298      -0.01640922       0.00000000
Si      -2.69190621      -2.71802071      -0.00290580       0.00000000
Si      -2.69483841       2.72960127      -0.02721195       0.00000000
Si       0.18003708       2.55321315       2.87615954       0.00000000
Si      -2.70886410       0.00329058      -2.74126211       0.00000000
Si       2.73544938       2.71520091       0.00006837       0.00000000
