10
Lattice="16.28999089631971 0.0 0.0 0.0 16.28999089631971 0.0 0.0 0.0 34.185847837958455" Properties=species:S:1:pos:R:3:initial_magmoms:R:1 pbc="T T T"
Si       0.80591517       0.56624040      -2.11877166       0.00000000
Si      -0.78477075       1.74967632       1.34517968       0.00000000
Si       1.99228329      -0.63570096       1.16464412       0.00000000
Si      -1.54554633      -1.81760562      -0.36715621       0.00000000
Si      -0.61911774       0.59036589       3.39855378       0.00000000
Si       2.03108607      -1.41636663      -2.52226745       0.00000000
Si       1.47305583      -2.96792397       1.53374892       0.00000000
Si       3.48990444      -1.16882379      -0.65336029       0.00000000
Si       2.15401041       2.49787602      -1.87338551       0.00000000
Si      -0.71921979      -3.61910043       0.94578619       0.00000000
