10
Lattice="16.28999089631971 0.0 0.0 0.0 16.28999089631971 0.0 0.0 0.0 34.185847837958455" Properties=species:S:1:pos:R:3:initial_magmoms:R:1 pbc="T T T"
Si      -0.64052280       1.83348837       1.34702572       0.00000000
Si       2.17031670      -0.68347953       0.68922126       0.00000000
Si      -1.49916870      -1.87955649       0.07216637       0.00000000
Si      -0.03953583       0.91499301      -2.23281571       0.00000000
Si      -2.81645955       2.31119262       0.65900096       0.00000000
Si       0.78874551       3.61670580       0.69934028       0.00000000
Si      -1.36415718      -2.71109583       2.29920467       0.00000000
Si       2.95508745      -2.43315585      -0.65595841       0.00000000
Si       2.63072097       2.83520934      -0.49904529       0.00000000
Si      -3.68228934      -1.18366398      -0.63496829       0.00000000
