10
Lattice="16.28999089631971 0.0 0.0 0.0 16.28999089631971 0.0 0.0 0.0 34.185847837958455" Properties=species:S:1:pos:R:3:initial_magmoms:R:1 pbc="T T T"
Si      -1.32525666      -1.39242033      -1.34085858       0.00000000
Si       1.35576783      -1.35395964       1.35895658       0.00000000
Si      -1.35874890       1.35905841       1.35960611       0.00000000
Si       1.38981393       1.35014778      -1.37508547       0.00000000
Si      -2.65484646      -0.12326643      -2.72709891       0.00000000
Si      -0.01428633       2.64326427      -2.76530161       0.00000000
Si      -2.71329498      -2.71130760       0.00300836       0.00000000
Si       2.71523349      -2.71218726      -0.00290580       0.00000000
Si      -0.00001629      -2.71324611       2.71767386       0.00000000
Si      -2.71497285       0.00171045       2.71750294       0.00000000
