10
Lattice="16.28999089631971 0.0 0.0 0.0 16.28999089631971 0.0 0.0 0.0 34.185847837958455" Properties=species:S:1:pos:R:3:initial_magmoms:R:1 pbc="T T T"
Si       2.07071964      -0.53985060      -0.90907057       0.00000000
Si       0.78455898       0.48891177       2.13555692       0.00000000
Si      -0.80052318       2.23345674      -0.34849073       0.00000000
Si      -1.88569782      -1.43130456       0.40178649       0.00000000
Si      -0.97210575      -1.42863300      -1.83082410       0.00000000
Si      -2.94912531       0.54561726      -0.21567863       0.00000000
Si       3.08004804       1.58607585      -0.57035700       0.00000000
Si       2.14182549       2.34637902       1.52506571       0.00000000
Si      -2.09007216       2.50523910       1.64116091       0.00000000
Si      -2.39065524       1.85701113      -2.06732193       0.00000000
