10
Lattice="16.28999089631971 0.0 0.0 0.0 16.28999089631971 0.0 0.0 0.0 34.185847837958455" Properties=species:S:1:pos:R:3:initial_magmoms:R:1 pbc="T T T"
Si      -2.17593675       0.47770425      -0.68802476       0.00000000
Si      -0.16309548      -0.38814183       2.29746119       0.00000000
Si       0.64052280      -1.83348837      -1.34702572       0.00000000
Si       1.42926831       1.78321743      -0.64768544       0.00000000
Si      -1.71491346       1.87727589      -2.50876403       0.00000000
Si      -1.23393492      -2.56130928       2.22707249       0.00000000
Si       0.60098697      -0.91849536      -3.57984143       0.00000000
Si      -3.12523650       2.00832894       0.78189915       0.00000000
Si       2.81083950      -2.51696790      -0.65780445       0.00000000
Si       1.94746950      -0.34230177       3.28550111       0.00000000
