10
Lattice="16.28999089631971 0.0 0.0 0.0 16.28999089631971 0.0 0.0 0.0 34.185847837958455" Properties=species:S:1:pos:R:3:initial_magmoms:R:1 pbc="T T T"
Si       2.11056498       0.04584006       0.98803993       0.00000000
Si       0.16309548       0.38814183      -2.29746119       0.00000000
Si      -1.07083944      -2.17316745      -0.07038870       0.00000000
Si      -0.97827966       1.76267574       1.44862611       0.00000000
Si       1.19086416       0.28197990       3.13111774       0.00000000
Si      -3.29905080      -1.57885938      -0.48841348       0.00000000
Si       2.73729015      -2.19432816       1.15264488       0.00000000
Si      -2.01284127       0.86584608      -2.98548595       0.00000000
Si      -0.99601947      -2.91446019       2.10735358       0.00000000
Si      -0.81091620      -1.04690943       3.51574293       0.00000000
