10
Lattice="16.28999089631971 0.0 0.0 0.0 16.28999089631971 0.0 0.0 0.0 34.185847837958455" Properties=species:S:1:pos:R:3:initial_magmoms:R:1 pbc="T T T"
Si      -2.11056498      -0.04584006      -0.98803993       0.00000000
Si       0.62672517      -2.24016822       0.16460495       0.00000000
Si      -0.91970082       0.23613984       2.14307781       0.00000000
Si       1.29081960       1.88423172      -0.81936686       0.00000000
Si      -3.08884464       1.71683568       0.46058619       0.00000000
Si      -1.58128659       2.48142312       2.12841208       0.00000000
Si       0.84926286       0.17205498       3.57932864       0.00000000
Si       2.61863379       1.21867119       2.45861336       0.00000000
Si       3.00294747       0.92471814      -2.14010364       0.00000000
Si       2.26305567      -2.49645879       1.80727004       0.00000000
