10
Lattice="16.28999089631971 0.0 0.0 0.0 16.28999089631971 0.0 0.0 0.0 34.185847837958455" Properties=species:S:1:pos:R:3:initial_magmoms:R:1 pbc="T T T"
Si      -1.20422196       1.40906871       1.47902077       0.00000000
Si       1.50320862      -1.30517109       1.45490606       0.00000000
Si      -1.89299574      -0.94115475      -1.45717740       0.00000000
Si       1.05787260       1.94904963      -1.34009081       0.00000000
Si      -2.45449738       2.77604406       0.00256394       0.00000000
Si      -2.57346651      -2.73942903       0.13199163       0.00000000
Si      -2.56207165       0.06087573       2.84950482       0.00000000
Si       0.15384276      -2.65894014       2.84817157       0.00000000
Si      -0.88700679      -0.93118527      -3.72212783       0.00000000
Si      -3.65163808       0.87353496      -1.23172161       0.00000000
