10
Lattice="16.28999089631971 0.0 0.0 0.0 16.28999089631971 0.0 0.0 0.0 34.185847837958455" Properties=species:S:1:pos:R:3:initial_magmoms:R:1 pbc="T T T"
Si       1.35749457       1.35558864       1.35721310       0.00000000
Si       1.35804843      -1.35801585      -1.35676869       0.00000000
Si      -1.35780408       1.35804843      -1.35704217       0.00000000
Si      -1.35868374      -1.35853713       1.35779426       0.00000000
Si      -0.00105885       2.71317836      -2.71490481       0.00000000
Si       2.71588509       0.00035838       2.71384505       0.00000000
Si      -2.71277370       0.00193851       2.71709270       0.00000000
Si       2.71505430       2.71483004       0.00020512       0.00000000
Si      -2.71513575       2.71506009      -0.00010256       0.00000000
Si       2.71502172      -2.71531494       0.00000000       0.00000000
