10
Lattice="16.28999089631971 0.0 0.0 0.0 16.28999089631971 0.0 0.0 0.0 34.185847837958455" Properties=species:S:1:pos:R:3:initial_magmoms:R:1 pbc="T T T"
Si       1.35443205       1.33325505       1.38028856       0.00000000
Si       1.35408996      -1.36047564      -1.35929844       0.00000000
Si      -1.36041048       1.35449721      -1.35957193       0.00000000
Si      -1.35348723      -1.36347300       1.37810067       0.00000000
Si      -0.05212800       2.50489701       2.87349305       0.00000000
Si       2.71344159       2.71622718       0.00092302       0.00000000
Si       2.71277370      -0.00193851      -2.71709270       0.00000000
Si      -2.71694394       2.71313208      -0.00023930       0.00000000
Si      -0.00236205       2.71312158      -2.71719526       0.00000000
Si      -2.71694394      -0.00171045      -2.71729782       0.00000000
