10
Lattice="16.28999089631971 0.0 0.0 0.0 16.28999089631971 0.0 0.0 0.0 34.185847837958455" Properties=species:S:1:pos:R:3:initial_magmoms:R:1 pbc="T T T"
Si       0.84536955       0.73777410       2.09306389       0.00000000
Si       1.98746145      -1.08768330      -0.77147246       0.00000000
Si      -1.72859706      -1.66309497       0.31085209       0.00000000
Si      -0.96037695       1.76857272      -1.42749925       0.00000000
Si       1.14350913      -2.26028637      -2.63692685       0.00000000
Si      -1.90959525       0.53229204      -3.21480474       0.00000000
Si       2.32774326       2.57256567       1.63206747       0.00000000
Si       2.47132332      -2.92584690       0.64105338       0.00000000
Si      -0.85822236       1.92674862       3.28050998       0.00000000
Si      -0.01480761      -0.66753162      -3.96634684       0.00000000
