10
Lattice="16.28999089631971 0.0 0.0 0.0 16.28999089631971 0.0 0.0 0.0 34.185847837958455" Properties=species:S:1:pos:R:3:initial_magmoms:R:1 pbc="T T T"
Si       1.35227592      -1.35689595      -1.36210168       0.00000000
Si      -1.37741724      -1.34990754       1.35451242       0.00000000
Si      -1.36300059       1.36045917      -1.36107611       0.00000000
Si       1.37418923       1.34690263       1.38435668       0.00000000
Si      -0.15420114       2.53212068       2.74652674       0.00000000
Si       2.71229219      -2.71118139      -0.00249557       0.00000000
Si      -2.71787247      -2.71140945      -0.00482021       0.00000000
Si       2.71151027       0.00283587      -2.71822084       0.00000000
Si      -0.00342199      -2.71194702      -2.71839177       0.00000000
Si       2.71232477       2.71872263      -0.00529881       0.00000000
