10
Lattice="16.28999089631971 0.0 0.0 0.0 16.28999089631971 0.0 0.0 0.0 34.185847837958455" Properties=species:S:1:pos:R:3:initial_magmoms:R:1 pbc="T T T"
Si      -1.35425286       1.35904538       1.35485428       0.00000000
Si      -1.35570267      -1.35739696      -1.35738403       0.00000000
Si       1.35934505       1.35777476      -1.35776008       0.00000000
Si       1.36300059      -1.36045917       1.36107611       0.00000000
Si      -0.00079821       2.69360363       2.71681922       0.00000000
Si      -0.01441665      -2.71036671       2.71558853       0.00000000
Si      -2.71363707       2.71282583       0.00003419       0.00000000
Si      -2.71340901       0.00009285      -2.71466551       0.00000000
Si      -2.71326240      -2.71663836      -0.00037604       0.00000000
Si       0.00164529      -2.71531887      -2.71463132       0.00000000
