10
Lattice="16.28999089631971 0.0 0.0 0.0 16.28999089631971 0.0 0.0 0.0 34.185847837958455" Properties=species:S:1:pos:R:3:initial_magmoms:R:1 pbc="T T T"
Si       0.92589102       0.84908041       1.99864252       0.00000000
Si       1.88445978      -0.32914175      -1.43061016       0.00000000
Si      -1.59749514      -1.70465306       0.54068367       0.00000000
Si      -1.26480447       1.74814995      -1.10454536       0.00000000
Si      -3.03205770      -1.78890494      -1.34576084       0.00000000
Si      -2.96403066      -0.81065786       2.22809806       0.00000000
Si       1.55852946      -0.90647564       3.37664064       0.00000000
Si      -0.57058983       2.22200976       3.09870954       0.00000000
Si      -0.01255959       3.77356710      -0.95730683       0.00000000
Si       2.86399770       1.66867104      -2.13784738       0.00000000
