10
Lattice="16.28999089631971 0.0 0.0 0.0 16.28999089631971 0.0 0.0 0.0 34.185847837958455" Properties=species:S:1:pos:R:3:initial_magmoms:R:1 pbc="T T T"
Si      -1.49648085       1.37292934       1.10006701       0.00000000
Si       0.63263844      -1.75555605       1.37799811       0.00000000
Si      -0.92589102      -0.84908041      -1.99864252       0.00000000
Si       1.99272542       1.29965692      -0.14395669       0.00000000
Si       0.52036776       3.17202952      -1.08704220       0.00000000
Si       2.46160701      -2.45076438      -0.02051152       0.00000000
Si       3.34708091      -0.46050853       0.93122302       0.00000000
Si       0.95856876      -1.17822216      -3.42925268       0.00000000
Si      -3.68875647       0.72175288       0.51210429       0.00000000
Si      -2.52338616      -2.55373347      -1.45795885       0.00000000
