10
Lattice="16.28999089631971 0.0 0.0 0.0 16.28999089631971 0.0 0.0 0.0 34.185847837958455" Properties=species:S:1:pos:R:3:initial_magmoms:R:1 pbc="T T T"
Si       0.92743857       1.49523141      -1.54851721       0.00000000
Si      -1.09665909       1.68139353       1.22193963       0.00000000
Si      -1.83420513      -1.04912406      -1.05887304       0.00000000
Si       1.32867756      -1.37899967       1.48397430       0.00000000
Si      -1.58874741       0.41464403       3.15275739       0.00000000
Si      -0.09612729      -1.42521440       3.38505036       0.00000000
Si      -2.83335228       0.74348049      -2.43899068       0.00000000
Si       3.12846192       2.09289522      -1.01720047       0.00000000
Si       0.49655178       3.43157484       1.80238146       0.00000000
Si      -1.06313427      -2.74535600      -2.59980100       0.00000000
