10
Lattice="16.28999089631971 0.0 0.0 0.0 16.28999089631971 0.0 0.0 0.0 34.185847837958455" Properties=species:S:1:pos:R:3:initial_magmoms:R:1 pbc="T T T"
Si      -0.89792109      -1.88438715      -0.99750941       0.00000000
Si       1.36671212      -1.55381418       1.28725108       0.00000000
Si       2.20104520       0.50339847      -0.95703335       0.00000000
Si      -1.83827763       1.44767438       0.86107362       0.00000000
Si       2.43073094       0.23825102       2.48278760       0.00000000
Si       1.44293466       1.50547130      -2.93571132       0.00000000
Si      -0.48105999      -2.59487550       2.50207185       0.00000000
Si       1.30951793      -3.07082043      -1.48499987       0.00000000
Si      -0.90316647       2.77229573      -2.37779798       0.00000000
Si      -0.35142417       2.86122284       2.44553526       0.00000000
