10
Lattice="16.28999089631971 0.0 0.0 0.0 16.28999089631971 0.0 0.0 0.0 34.185847837958455" Properties=species:S:1:pos:R:3:initial_magmoms:R:1 pbc="T T T"
Si       1.31129613      -1.27130418      -1.46223209       0.00000000
Si       1.85300379       0.92235609       1.11439089       0.00000000
Si      -1.38748446       1.46049624      -1.43802849       0.00000000
Si      -1.29424050      -1.47488031       1.53908192       0.00000000
Si       2.52089379      -2.79324630      -0.07144846       0.00000000
Si       3.50787135      -0.92709648       1.03825896       0.00000000
Si       2.67560432       2.71816569      -0.10560014       0.00000000
Si      -2.47314780       0.02158425       2.91591771       0.00000000
Si      -0.04215852      -2.60586243      -2.82419703       0.00000000
Si      -2.81799081      -2.64228687       0.04926183       0.00000000
