10
Lattice="16.28999089631971 0.0 0.0 0.0 16.28999089631971 0.0 0.0 0.0 34.185847837958455" Properties=species:S:1:pos:R:3:initial_magmoms:R:1 pbc="T T T"
Si      -0.61398869       1.57164291       1.62864889       0.00000000
Si      -1.12041221      -2.05289838       0.39659024       0.00000000
Si      -1.33840499       0.48767373      -1.94705605       0.00000000
Si       0.31646257      -1.36177884      -2.02318798       0.00000000
Si       2.19436563       1.07970120      -0.50283992       0.00000000
Si       0.18165631       0.26720487       3.42077459       0.00000000
Si       3.49745160       0.06089202       1.29475552       0.00000000
Si       2.11864971      -0.95374692       2.95912864       0.00000000
Si      -2.70604823      -1.81845270       2.09979851       0.00000000
Si       2.08686792      -0.44061192      -3.27408303       0.00000000
