10
Lattice="16.28999089631971 0.0 0.0 0.0 16.28999089631971 0.0 0.0 0.0 34.185847837958455" Properties=species:S:1:pos:R:3:initial_magmoms:R:1 pbc="T T T"
Si       0.82260053       1.79580960      -1.21999103       0.00000000
Si      -1.85300379      -0.92235609      -1.11439089       0.00000000
Si       1.33840499      -0.48767373       1.94705605       0.00000000
Si       1.65486756      -1.84945257      -0.07613193       0.00000000
Si      -0.54170766      -2.19366027      -2.57662298       0.00000000
Si       2.18418342       0.54512856      -2.60913374       0.00000000
Si       0.21799278      -2.54057211       2.34364629       0.00000000
Si       2.56727861       2.75449239       0.06006457       0.00000000
Si       3.42527291      -0.92828565      -1.32702698       0.00000000
Si       0.72441630       1.08396918       3.57570494       0.00000000
