10
Lattice="16.28999089631971 0.0 0.0 0.0 16.28999089631971 0.0 0.0 0.0 34.185847837958455" Properties=species:S:1:pos:R:3:initial_magmoms:R:1 pbc="T T T"
Si       1.37097359      -0.14827158       1.94541513       0.00000000
Si       0.52921323      -1.68521679      -1.64061394       0.00000000
Si      -2.10269691      -0.34653717       1.17896799       0.00000000
Si      -0.00373041       1.81138284      -1.64601531       0.00000000
Si      -1.99397745       0.11034846      -2.35461996       0.00000000
Si      -1.67181012      -2.28288060      -2.17193068       0.00000000
Si      -2.90737404       1.87312194       1.11927947       0.00000000
Si      -1.29246489      -1.09986822       3.33951478       0.00000000
Si       2.32106666       2.61125442      -1.46811206       0.00000000
Si       1.05363624      -2.36669265       2.78160144       0.00000000
