10
Lattice="16.28999089631971 0.0 0.0 0.0 16.28999089631971 0.0 0.0 0.0 34.185847837958455" Properties=species:S:1:pos:R:3:initial_magmoms:R:1 pbc="T T T"
Si       1.75273625       0.86535738      -1.31020754       0.00000000
Si      -0.73096488      -1.68365295      -1.57747264       0.00000000
Si       1.52476096      -0.60473367       1.91939969       0.00000000
Si      -1.69274277       1.87683606      -0.06584198       0.00000000
Si       0.70716519       2.80779327      -2.11084054       0.00000000
Si       1.93247360      -0.73205631      -2.97157230       0.00000000
Si      -0.17922258      -1.59472584       3.24586059       0.00000000
Si      -2.76161112      -2.45364867      -0.63848944       0.00000000
Si      -1.66607604      -3.00827430       1.66139895       0.00000000
Si       1.61513625      -2.95047738      -2.13538599       0.00000000
