10
Lattice="16.28999089631971 0.0 0.0 0.0 16.28999089631971 0.0 0.0 0.0 34.185847837958455" Properties=species:S:1:pos:R:3:initial_magmoms:R:1 pbc="T T T"
Si       1.34421822       1.32442587      -1.37705458       0.00000000
Si       1.35229485      -1.35557235       1.35150406       0.00000000
Si      -1.36021500       1.35493704       1.35150406       0.00000000
Si      -1.32735807      -1.36687761      -1.38267474       0.00000000
Si      -0.21040164       2.51548551      -2.70277566       0.00000000
Si       2.71217653       0.00000000       2.70984530       0.00000000
Si      -0.00182448      -2.71459818       2.70991367       0.00000000
Si      -0.00286704       2.71494027       2.71001623       0.00000000
Si      -2.71722087       0.00001629       2.71028972       0.00000000
Si       2.71303664      -2.71531494      -0.00905925       0.00000000
