10
Lattice="16.28999089631971 0.0 0.0 0.0 16.28999089631971 0.0 0.0 0.0 34.185847837958455" Properties=species:S:1:pos:R:3:initial_magmoms:R:1 pbc="T T T"
Si       1.35411933       1.35902583      -1.35840961       0.00000000
Si       1.35717631      -1.35782037       1.35755496       0.00000000
Si      -1.35842310       1.35731538       1.35714473       0.00000000
Si      -1.35957969      -1.35638685      -1.35854635       0.00000000
Si       0.00182448       2.71459818      -2.70991367       0.00000000
Si       2.71326959      -0.00210141       2.71367412       0.00000000
Si      -0.00265527       2.71467963       2.71377668       0.00000000
Si       2.71400101       2.71459818      -0.00006837       0.00000000
Si       2.71439034      -2.71520091       0.00010256       0.00000000
Si      -2.71539639       2.71461447       0.00037604       0.00000000
