10
Lattice="16.28999089631971 0.0 0.0 0.0 16.28999089631971 0.0 0.0 0.0 34.185847837958455" Properties=species:S:1:pos:R:3:initial_magmoms:R:1 pbc="T T T"
Si      -1.35301482       1.35744570       1.35772589       0.00000000
Si      -1.35638685      -1.35612621      -1.35728148       0.00000000
Si       1.35858600       1.35856971      -1.35717892       0.00000000
Si       1.36158336      -1.35703845       1.35905914       0.00000000
Si      -2.71331127       0.00053757      -2.71432365       0.00000000
Si      -2.71539639      -2.71225242       0.00000000       0.00000000
Si       0.00164529      -2.71441899      -2.71415272       0.00000000
Si       0.00161271       2.71586880      -2.71394760       0.00000000
Si       0.01425375       2.70511740       2.72481871       0.00000000
Si       2.71510317      -2.71505430       0.00051279       0.00000000
