10
Lattice="16.28999089631971 0.0 0.0 0.0 16.28999089631971 0.0 0.0 0.0 34.185847837958455" Properties=species:S:1:pos:R:3:initial_magmoms:R:1 pbc="T T T"
Si      -1.34389242      -1.35091341      -1.37847671       0.00000000
Si       1.37103156       1.36467846      -1.37724602       0.00000000
Si       1.37235545      -1.45468071       1.33632554       0.00000000
Si      -1.39662315       1.32506118       1.44903634       0.00000000
Si       0.30341754       2.42170398       2.78378933       0.00000000
Si      -2.69122203       2.71124244      -0.01271714       0.00000000
Si      -2.69073333      -2.71235016       0.00389719       0.00000000
Si       2.73393834      -2.70536175      -0.05281716       0.00000000
Si      -2.70547578       0.00612504      -2.73753585       0.00000000
Si       2.72880536       2.71484253      -0.01846037       0.00000000
