10
Lattice="16.28999089631971 0.0 0.0 0.0 16.28999089631971 0.0 0.0 0.0 34.185847837958455" Properties=species:S:1:pos:R:3:initial_magmoms:R:1 pbc="T T T"
Si       1.35777380       1.35016407       1.35878565       0.00000000
Si       1.35377135      -1.35940050      -1.36093936       0.00000000
Si      -1.36215351       1.35738054      -1.36083681       0.00000000
Si      -1.37103156      -1.36467846       1.37724602       0.00000000
Si      -0.08276949       2.62730007       2.66947179       0.00000000
Si       2.71243880      -2.71419093      -0.00396556       0.00000000
Si       2.71310669       2.71591767      -0.00129906       0.00000000
Si       2.71183607       0.00037467      -2.71743456       0.00000000
Si      -2.71492398      -2.71559187      -0.00123069       0.00000000
Si      -0.00232193      -2.71511946      -2.71705852       0.00000000
