10
Lattice="16.28999089631971 0.0 0.0 0.0 16.28999089631971 0.0 0.0 0.0 34.185847837958455" Properties=species:S:1:pos:R:3:initial_magmoms:R:1 pbc="T T T"
Si      -1.21319775       1.38746817       1.47566713       0.00000000
Si       0.98484453       1.57027455      -1.49156356       0.00000000
Si      -1.70004069      -1.09664280      -1.33475299       0.00000000
Si       1.91146927      -1.28482488       1.24398951       0.00000000
Si       3.13088003       0.85783140       1.27769678       0.00000000
Si       2.36287657       2.73678516      -0.01904153       0.00000000
Si       0.38164212       3.42899613       1.19937696       0.00000000
Si      -0.30341754      -2.42170398      -2.78378933       0.00000000
Si       2.42538782       0.29313855      -2.80224970       0.00000000
Si      -2.94708906       2.66756895       0.01353760       0.00000000
