10
Lattice="16.28999089631971 0.0 0.0 0.0 16.28999089631971 0.0 0.0 0.0 34.185847837958455" Properties=species:S:1:pos:R:3:initial_magmoms:R:1 pbc="T T T"
Si       1.97632302      -0.01923849       1.20440228       0.00000000
Si      -1.63981656       1.16683641       1.16204599       0.00000000
Si       0.37004364       0.44676954      -2.27845385       0.00000000
Si      -0.87996951      -2.19582684      -0.16433146       0.00000000
Si      -2.77964415       1.67912433      -0.87447448       0.00000000
Si       1.19129163      -3.34228446       0.22559254       0.00000000
Si       3.07826333      -1.79362674       0.16166496       0.00000000
Si      -1.84142160       0.91882116      -2.96989719       0.00000000
Si       2.52909485       2.30542596       1.29075578       0.00000000
Si      -3.00604257      -1.93297140       0.88620023       0.00000000
