10
Lattice="16.28999089631971 0.0 0.0 0.0 16.28999089631971 0.0 0.0 0.0 34.185847837958455" Properties=species:S:1:pos:R:3:initial_magmoms:R:1 pbc="T T T"
Si      -1.35098489       1.35906338      -1.35762333       0.00000000
Si      -1.35528545      -1.35690546       1.35683706       0.00000000
Si       1.35975160       1.35876691       1.35635846       0.00000000
Si       1.35915050      -1.35482034      -1.36223843       0.00000000
Si       0.00525413       2.69189978      -2.71470311       0.00000000
Si      -2.71263341       0.00101646       2.71408435       0.00000000
Si      -2.71297550       2.71504787       0.00041023       0.00000000
Si       0.00264786      -2.71399278       2.71415272       0.00000000
Si      -2.71263341      -2.71690869      -0.00167511       0.00000000
Si       0.00241430       2.71618817       2.71370830       0.00000000
