10
Lattice="16.28999089631971 0.0 0.0 0.0 16.28999089631971 0.0 0.0 0.0 34.185847837958455" Properties=species:S:1:pos:R:3:initial_magmoms:R:1 pbc="T T T"
Si      -1.33141428      -1.36244673       1.37300356       0.00000000
Si       1.17488367      -1.56527352      -1.32074704       0.00000000
Si       1.38671883       1.35015008       1.37758446       0.00000000
Si      -1.58113998       1.24340334      -1.45772981       0.00000000
Si      -2.69040753       2.71240622       0.01807407       0.00000000
Si      -2.69104284      -0.00954853       2.73418222       0.00000000
Si       2.74295785       2.68298648       0.02050468       0.00000000
Si      -2.70207117      -2.73277782      -0.00475184       0.00000000
Si       0.02472822       2.70613457       2.73561803       0.00000000
Si      -0.43098453      -2.38751127      -2.99360650       0.00000000
