10
Lattice="16.28999089631971 0.0 0.0 0.0 16.28999089631971 0.0 0.0 0.0 34.185847837958455" Properties=species:S:1:pos:R:3:initial_magmoms:R:1 pbc="T T T"
Si      -1.43742960       1.17835344       1.41840581       0.00000000
Si      -1.36726857      -1.34767170      -1.36709282       0.00000000
Si       1.34519562       1.36912563      -1.36815258       0.00000000
Si       1.29459888      -1.38618126       1.46175348       0.00000000
Si      -0.64207035      -2.22927021       2.57470857       0.00000000
Si       0.04755051       2.37803049       2.81004408       0.00000000
Si      -2.43296037      -0.50586966       2.85400710       0.00000000
Si       2.69122203      -2.71124244       0.01271714       0.00000000
Si       2.68565085       2.73062754      -0.00881995       0.00000000
Si       2.70010008       0.01081656      -2.72536568       0.00000000
