10
Lattice="16.28999089631971 0.0 0.0 0.0 16.28999089631971 0.0 0.0 0.0 34.185847837958455" Properties=species:S:1:pos:R:3:initial_magmoms:R:1 pbc="T T T"
Si       1.57796343       1.71688455      -0.30264748       0.00000000
Si      -0.22835322      -1.60132329      -1.71339565       0.00000000
Si      -1.81091532       1.58325768       0.39368444       0.00000000
Si       0.50725431      -1.46593710       1.90199908       0.00000000
Si      -0.90956844       1.93145643       2.59443381       0.00000000
Si       0.90321534       3.10673106       1.56602038       0.00000000
Si       0.96739794      -3.40819380      -0.73318429       0.00000000
Si      -0.58710789      -0.25371675       3.59317392       0.00000000
Si       1.31536863       2.36936421      -2.59945914       0.00000000
Si      -2.54064867      -2.09520351      -1.85000238       0.00000000
