10
Lattice="16.28999089631971 0.0 0.0 0.0 16.28999089631971 0.0 0.0 0.0 34.185847837958455" Properties=species:S:1:pos:R:3:initial_magmoms:R:1 pbc="T T T"
Si      -0.17973734       1.59741369       1.66136476       0.00000000
Si       2.17390050       0.92255157      -0.21403771       0.00000000
Si      -1.37097359       0.14827158      -1.94541513       0.00000000
Si      -0.31733735      -2.21842107       0.83618631       0.00000000
Si      -2.66343848      -0.95159664       1.39409965       0.00000000
Si       2.75340096       0.60004215       2.05491246       0.00000000
Si      -3.47367050      -0.19826559      -0.76644714       0.00000000
Si      -1.93247360       0.73205631       2.97157230       0.00000000
Si       2.35691865      -1.67739759       2.40056576       0.00000000
Si       3.26826270      -0.28966878      -1.90521255       0.00000000
