10
Lattice="16.28999089631971 0.0 0.0 0.0 16.28999089631971 0.0 0.0 0.0 34.185847837958455" Properties=species:S:1:pos:R:3:initial_magmoms:R:1 pbc="T T T"
Si      -1.09436220       1.21222035       1.69117484       0.00000000
Si      -0.61773309      -2.25207621      -0.53381231       0.00000000
Si       2.30286843      -0.23322393       0.74477330       0.00000000
Si      -0.50725431       1.46593710      -1.90199908       0.00000000
Si       0.46014363      -1.94225670      -2.63518337       0.00000000
Si      -0.73560753      -0.13538619      -3.61539473       0.00000000
Si      -1.41682275       3.39739353       0.69243473       0.00000000
Si      -3.26826270       0.28966878       1.90521255       0.00000000
Si       3.37374045       1.84722084       0.39112050       0.00000000
Si       0.09936900      -3.73252444       1.18696749       0.00000000
