10
Lattice="16.28999089631971 0.0 0.0 0.0 16.28999089631971 0.0 0.0 0.0 34.185847837958455" Properties=species:S:1:pos:R:3:initial_magmoms:R:1 pbc="T T T"
Si      -0.90214672       1.63287702       1.41139770       0.00000000
Si      -1.74467808      -0.95868279      -1.28005560       0.00000000
Si       0.99165375       1.82164554      -1.20894900       0.00000000
Si       0.96549201      -2.16246492       1.38415157       0.00000000
Si      -0.38309519      -2.20936383      -2.66919831       0.00000000
Si       2.32140645       0.50942088      -2.63788405       0.00000000
Si      -0.68660558       0.39151386       3.65542638       0.00000000
Si      -2.56727861      -2.75449239      -0.06006457       0.00000000
Si       2.66390370      -2.74921443      -0.23656620       0.00000000
Si       2.25676773       3.18586788       0.27851226       0.00000000
