10
Lattice="16.28999089631971 0.0 0.0 0.0 16.28999089631971 0.0 0.0 0.0 34.185847837958455" Properties=species:S:1:pos:R:3:initial_magmoms:R:1 pbc="T T T"
Si      -1.97632302       0.01923849      -1.20440228       0.00000000
Si       1.10194031      -1.77438825      -1.04273731       0.00000000
Si       0.17451803      -0.88834257       2.17220417       0.00000000
Si       0.55277183       2.32466445       0.08635350       0.00000000
Si       2.18071298       0.17526411       2.79199394       0.00000000
Si      -0.78503139      -3.32304597      -0.97880974       0.00000000
Si      -3.61613958       1.18607490      -0.04235629       0.00000000
Si      -2.85629253      -2.17658835      -1.36873374       0.00000000
Si       2.86759712       2.57383629      -0.15677639       0.00000000
Si      -1.60627938       0.46600803      -3.48285612       0.00000000
