10
Lattice="16.28999089631971 0.0 0.0 0.0 16.28999089631971 0.0 0.0 0.0 34.185847837958455" Properties=species:S:1:pos:R:3:initial_magmoms:R:1 pbc="T T T"
Si      -1.10194031       1.77438825       1.04273731       0.00000000
Si       0.50684706       0.41940234      -2.28594055       0.00000000
Si       2.07883206      -0.70095870       0.93265882       0.00000000
Si      -1.88697170      -1.54865772       0.06392757       0.00000000
Si      -0.92742228       0.88604568       3.21494148       0.00000000
Si      -3.07826333       1.79362674      -0.16166496       0.00000000
Si       2.76180660      -2.40358950      -0.56157124       0.00000000
Si       2.17440549      -1.33156089      -2.70581137       0.00000000
Si      -1.61140517       0.38268468      -3.43619242       0.00000000
Si       3.62763639       1.09126710       0.73239801       0.00000000
