10
Lattice="16.28999089631971 0.0 0.0 0.0 16.28999089631971 0.0 0.0 0.0 34.185847837958455" Properties=species:S:1:pos:R:3:initial_magmoms:R:1 pbc="T T T"
Si       1.35913986      -1.35252612      -1.35417056       0.00000000
Si      -1.35734959      -1.35558864       1.35762333       0.00000000
Si       1.35788553       1.35998694       1.35786263       0.00000000
Si      -1.35795721       1.36143675      -1.36128122       0.00000000
Si       2.70314631      -0.01946655      -2.72317779       0.00000000
Si       0.02722059       2.71627585      -2.71087771       0.00000000
Si      -0.00001629      -2.71251306       2.71487062       0.00000000
Si       2.71458189      -2.71375110       0.00064953       0.00000000
Si      -2.71723126      -2.71116099      -0.00071790       0.00000000
Si      -2.71445985       0.00226431       2.71510992       0.00000000
