10
Lattice="16.28999089631971 0.0 0.0 0.0 16.28999089631971 0.0 0.0 0.0 34.185847837958455" Properties=species:S:1:pos:R:3:initial_magmoms:R:1 pbc="T T T"
Si      -1.35189081      -1.35107631      -1.37871601       0.00000000
Si       1.36233270       1.36340784      -1.37803230       0.00000000
Si       1.32383943      -1.40507766       1.41194468       0.00000000
Si      -1.22228757       1.34170956       1.60895783       0.00000000
Si       0.79412121       2.14784532       2.87260421       0.00000000
Si       2.30361777       0.14856480       2.86959586       0.00000000
Si      -2.68999376       2.70700771       0.00813624       0.00000000
Si      -2.70722370      -2.71682991      -0.01863130       0.00000000
Si       2.72578941      -2.71319724       0.00030767       0.00000000
Si       0.00472410      -2.70897813      -2.73681795       0.00000000
