10
Lattice="10.86 0.0 0.0 0.0 10.86 0.0 0.0 0.0 10.86" Properties=species:S:1:pos:R:3:initial_magmoms:R:1 pbc="T T T"
Si       1.52680740      -1.22886330       1.17810366       0.00000000
Si       1.38431334       1.39385928      -1.26782898       0.00000000
Si      -1.12874496       1.61717346       1.30439460       0.00000000
Si      -2.55404394       0.12836520       2.55712818       0.00000000
Si      -2.55404394      -2.58663480      -0.15787182       0.00000000
Si       0.16095606      -2.58663480       2.55712818       0.00000000
Si      -2.55404394       2.84336520      -0.15787182       0.00000000
Si       0.16095606       2.84336520       2.55712818       0.00000000
Si      -2.55404394       0.12836520      -2.87287182       0.00000000
Si       2.87595606       0.12836520       2.55712818       0.00000000
