10
Lattice="10.86 0.0 0.0 0.0 10.86 0.0 0.0 0.0 10.86" Properties=species:S:1:pos:R:3:initial_magmoms:R:1 pbc="T T T"
Si      -1.38346626      -1.11460524       1.20103998       0.00000000
Si       1.33153374      -1.11460524      -1.51396002       0.00000000
Si       1.33153374       1.60039476       1.20103998       0.00000000
Si      -0.02596626      -2.47210524       2.55853998       0.00000000
Si       2.68903374      -2.47210524      -0.15646002       0.00000000
Si      -2.74096626      -2.47210524      -0.15646002       0.00000000
Si       2.68903374       0.24289476       2.55853998       0.00000000
Si      -2.73261492       0.24316626       2.53701546       0.00000000
Si      -0.02596626      -2.47210524      -2.87146002       0.00000000
Si       2.68903374       0.24289476      -2.87146002       0.00000000
