10
Lattice="10.86 0.0 0.0 0.0 10.86 0.0 0.0 0.0 10.86" Properties=species:S:1:pos:R:3:initial_magmoms:R:1 pbc="T T T"
Si       1.28970102       1.22619174       1.25273358       0.00000000
Si       1.12874496      -1.61717346      -1.30439460       0.00000000
Si      -1.42529898       1.22619174      -1.46226642       0.00000000
Si      -1.42529898      -1.48880826       1.25273358       0.00000000
Si       2.51305830      -0.22331418      -2.57222358       0.00000000
Si       2.56276452       2.55223032      -0.18157920       0.00000000
Si      -0.06779898       2.58369174       2.61023358       0.00000000
Si       2.64720102      -0.13130826       2.61023358       0.00000000
Si      -2.78279898       2.58369174      -0.10476642       0.00000000
Si      -2.78279898      -0.13130826       2.61023358       0.00000000
