10
Lattice="10.86 0.0 0.0 0.0 10.86 0.0 0.0 0.0 10.86" Properties=species:S:1:pos:R:3:initial_magmoms:R:1 pbc="T T T"
Si      -1.23772506       1.35840138      -1.31414688       0.00000000
Si      -1.23772506      -1.35659862       1.40085312       0.00000000
Si       1.57086642      -1.31681844      -1.17975438       0.00000000
Si       1.47727494       1.35840138       1.40085312       0.00000000
Si      -2.59522506       0.00090138      -2.67164688       0.00000000
Si      -2.59522506      -2.71409862       0.04335312       0.00000000
Si      -2.59522506       2.71590138       0.04335312       0.00000000
Si       0.40882470      -2.78793576      -2.49750678       0.00000000
Si      -2.59522506       0.00090138       2.75835312       0.00000000
Si       2.80922136       0.08727096      -2.55330546       0.00000000
