10
Lattice="10.86 0.0 0.0 0.0 10.86 0.0 0.0 0.0 10.86" Properties=species:S:1:pos:R:3:initial_magmoms:R:1 pbc="T T T"
Si      -1.40865060      -1.14457884       1.08499002       0.00000000
Si       1.30634940       1.57042116       1.08499002       0.00000000
Si       1.30634940      -1.14457884      -1.63000998       0.00000000
Si      -0.05115060      -2.50207884       2.44249002       0.00000000
Si       2.66384940       0.21292116       2.44249002       0.00000000
Si       2.66384940      -2.50207884      -0.27250998       0.00000000
Si      -2.76615060      -2.50207884      -0.27250998       0.00000000
Si      -2.92710666       0.11825454       2.51291712       0.00000000
Si      -0.13858446       3.04817394       2.38051200       0.00000000
Si      -0.05115060      -2.50207884      -2.98750998       0.00000000
