10
Lattice="10.86 0.0 0.0 0.0 10.86 0.0 0.0 0.0 10.86" Properties=species:S:1:pos:R:3:initial_magmoms:R:1 pbc="T T T"
Si      -1.23054660      -1.08003786       1.44293562       0.00000000
Si      -1.23054660       1.63496214      -1.27206438       0.00000000
Si       1.48445340       1.63496214       1.44293562       0.00000000
Si      -2.52123588      -2.35096194      -0.11949258       0.00000000
Si      -2.37683046       0.07053570      -2.57646984       0.00000000
Si       2.75451954      -2.31728508       0.02345760       0.00000000
Si       0.12695340      -2.43753786       2.80043562       0.00000000
Si      -1.16598390      -2.92975650      -2.15818608       0.00000000
Si      -2.58804660       0.27746214       2.80043562       0.00000000
Si       2.82235110       0.14019174      -2.72159202       0.00000000
