10
Lattice="10.86 0.0 0.0 0.0 10.86 0.0 0.0 0.0 10.86" Properties=species:S:1:pos:R:3:initial_magmoms:R:1 pbc="T T T"
Si       1.37710230      -1.22022960      -1.26547236       0.00000000
Si      -1.33789770       1.49477040      -1.26547236       0.00000000
Si       1.37710230       1.49477040       1.44952764       0.00000000
Si      -2.65105632       0.22525812      -2.17039272       0.00000000
Si      -0.06783156      -2.45747682       2.74504962       0.00000000
Si      -0.05297508      -2.72760846      -2.51795616       0.00000000
Si       2.73460230      -2.57772960       0.09202764       0.00000000
Si       2.73460230       0.13727040      -2.62297236       0.00000000
Si       0.01960230       2.85227040      -2.62297236       0.00000000
Si       2.73460230       0.13727040       2.80702764       0.00000000
