10
Lattice="10.86 0.0 0.0 0.0 10.86 0.0 0.0 0.0 10.86" Properties=species:S:1:pos:R:3:initial_magmoms:R:1 pbc="T T T"
Si      -1.17634434       1.21237782      -1.32088008       0.00000000
Si      -1.17634434      -1.50262218       1.39411992       0.00000000
Si       1.53865566      -1.50262218      -1.32088008       0.00000000
Si      -0.90153204       3.22811328       1.27135848       0.00000000
Si      -2.55164388       2.60563980      -0.15435318       0.00000000
Si      -2.53384434      -0.14512218      -2.67838008       0.00000000
Si       0.18115566       2.56987782      -2.67838008       0.00000000
Si       2.82357828       2.41999896       0.14163612       0.00000000
Si      -2.53384434      -2.86012218       0.03661992       0.00000000
Si       0.18115566      -2.86012218      -2.67838008       0.00000000
