10
Lattice="10.86 0.0 0.0 0.0 10.86 0.0 0.0 0.0 10.86" Properties=species:S:1:pos:R:3:initial_magmoms:R:1 pbc="T T T"
Si      -1.19566428       1.50065652       1.15352748       0.00000000
Si       1.35750000      -1.35750000       1.35750000       0.00000000
Si      -1.35750000      -1.35750000      -1.35750000       0.00000000
Si       1.35750000       1.35750000      -1.35750000       0.00000000
Si      -2.54897232      -0.00749340       2.11515876       0.00000000
Si       0.00000000       2.71500000      -2.71500000       0.00000000
Si       2.71500000       0.00000000       2.71500000       0.00000000
Si       2.71500000      -2.71500000       0.00000000       0.00000000
Si       2.71500000       0.00000000      -2.71500000       0.00000000
Si      -2.71500000      -2.71500000       0.00000000       0.00000000
