10
Lattice="10.86 0.0 0.0 0.0 10.86 0.0 0.0 0.0 10.86" Properties=species:S:1:pos:R:3:initial_magmoms:R:1 pbc="T T T"
Si       1.21065108       1.44195822       1.47541788       0.00000000
Si      -1.50434892       1.44195822      -1.23958212       0.00000000
Si      -1.50434892      -1.27304178       1.47541788       0.00000000
Si       2.43435588       0.28462974      -2.56163508       0.00000000
Si       2.56815108       2.79945822       0.11791788       0.00000000
Si      -0.14684892       2.79945822      -2.59708212       0.00000000
Si       2.56815108       0.08445822       2.83291788       0.00000000
Si      -0.14684892      -2.63054178       2.83291788       0.00000000
Si      -2.93057100      -2.51043018       0.32978562       0.00000000
Si      -3.04355844      -0.00070590      -2.56870494       0.00000000
