10
Lattice="16.28999089631971 0.0 0.0 0.0 16.28999089631971 0.0 0.0 0.0 34.53561885213415" Properties=species:S:1:pos:R:3:initial_magmoms:R:1 pbc="T T T"
Si       1.78456787      -1.50060222       0.72935814       0.00000000
Si       0.72787793       2.15792394      -0.95922735       0.00000000
Si      -0.91689147      -1.67438394      -1.57782970       0.00000000
Si      -1.93011318      -0.22089240       1.99687619       0.00000000
Si       0.40462731       2.10133899       2.27369315       0.00000000
Si      -0.98480448      -0.50466420      -3.64033255       0.00000000
Si       0.52973451      -3.11261175       2.17330841       0.00000000
Si       2.13530786       3.07692755       0.96545106       0.00000000
Si       3.20715728      -0.28077444       2.15891050       0.00000000
Si      -2.79999918      -2.72554506      -0.59346041       0.00000000
