10
Lattice="16.28999089631971 0.0 0.0 0.0 16.28999089631971 0.0 0.0 0.0 34.53561885213415" Properties=species:S:1:pos:R:3:initial_magmoms:R:1 pbc="T T T"
Si      -0.76115025      -2.18888730      -0.01695700       0.00000000
Si       2.21446260       0.22118562      -0.75971497       0.00000000
Si       0.11448612       0.98565903       2.15108676       0.00000000
Si      -0.92696616       1.56414951      -1.59040067       0.00000000
Si       1.09219563       2.91307554       1.25554313       0.00000000
Si      -0.87575040       3.34945206      -0.04703754       0.00000000
Si      -2.49953760      -1.99801737      -1.53797557       0.00000000
Si       2.06900919      -0.16166196      -3.08607009       0.00000000
Si       2.92532562       2.45013003      -0.10502288       0.00000000
Si       0.60281145       1.65043764      -3.46616932       0.00000000
