10
Lattice="16.28999089631971 0.0 0.0 0.0 16.28999089631971 0.0 0.0 0.0 34.53561885213415" Properties=species:S:1:pos:R:3:initial_magmoms:R:1 pbc="T T T"
Si       1.34811153       1.36497168       1.37011856       0.00000000
Si      -1.36458072      -1.35252612       1.36856445       0.00000000
Si      -1.40517540       1.32449103      -1.39416918       0.00000000
Si       1.37601630      -1.40748858      -1.38683381       0.00000000
Si      -2.40780861      -0.32391036      -2.86924987       0.00000000
Si       2.56354101       0.07592769      -2.78529373       0.00000000
Si       2.68975593       2.72673423      -0.00755640       0.00000000
Si       2.70681156       0.00333945       2.72881963       0.00000000
Si       2.71827972      -2.71753038       0.00995317       0.00000000
Si      -0.00889434      -2.71178001       2.72881963       0.00000000
