10
Lattice="16.28999089631971 0.0 0.0 0.0 16.28999089631971 0.0 0.0 0.0 34.53561885213415" Properties=species:S:1:pos:R:3:initial_magmoms:R:1 pbc="T T T"
Si       0.83965176      -2.20849103      -0.26899809       0.00000000
Si       0.36999477       1.30714902      -1.96677006       0.00000000
Si      -2.37596981       0.08049410       0.33471940       0.00000000
Si       1.14531732       0.79283137       1.95544237       0.00000000
Si      -1.10545569      -1.47404009       3.04203715       0.00000000
Si       2.16774288       2.72111451      -0.93581219       0.00000000
Si      -3.08551659       0.24004651      -1.87704647       0.00000000
Si      -1.77538194       2.33261430      -2.18071834       0.00000000
Si       0.40465989      -3.01435733       2.08125570       0.00000000
Si      -2.93034131       2.28600861       1.10137604       0.00000000
