10
Lattice="16.28999089631971 0.0 0.0 0.0 16.28999089631971 0.0 0.0 0.0 34.53561885213415" Properties=species:S:1:pos:R:3:initial_magmoms:R:1 pbc="T T T"
Si       0.46084410      -0.54816732      -2.19380734       0.00000000
Si       0.49145301       2.23396010       0.36179535       0.00000000
Si       1.31760036      -0.49962312       1.84945249       0.00000000
Si      -2.34857817       0.16842557      -0.04482726       0.00000000
Si       1.19518101       1.64921426      -2.69229474       0.00000000
Si      -0.99082296       2.57986196       2.18541518       0.00000000
Si      -1.59824448      -1.39653423      -2.94416315       0.00000000
Si      -0.20740428      -1.02057732       3.51963049       0.00000000
Si       0.06876009       3.41780327      -1.61716579       0.00000000
Si      -3.03453378       2.04600608       1.17113803       0.00000000
