10
Lattice="16.28999089631971 0.0 0.0 0.0 16.28999089631971 0.0 0.0 0.0 34.53561885213415" Properties=species:S:1:pos:R:3:initial_magmoms:R:1 pbc="T T T"
Si       1.60163280      -0.91968453       1.43319445       0.00000000
Si      -0.69677217      -1.72902060      -1.47795263       0.00000000
Si      -1.50076512       1.86957072      -0.30602029       0.00000000
Si       1.74656493       0.79089579      -1.55589957       0.00000000
Si      -0.72062073      -0.11305260       2.54071783       0.00000000
Si       3.15343449       0.89774190       1.23005582       0.00000000
Si       0.22828806       1.92327885       2.98249771       0.00000000
Si      -2.09627865      -0.45732546      -2.93445864       0.00000000
Si      -2.48132538      -2.69692353       0.00120875       0.00000000
Si       2.48927490       2.67276546      -0.31019910       0.00000000
