10
Lattice="16.28999089631971 0.0 0.0 0.0 16.28999089631971 0.0 0.0 0.0 34.53561885213415" Properties=species:S:1:pos:R:3:initial_magmoms:R:1 pbc="T T T"
Si       0.94890879       2.03633145       0.44177988       0.00000000
Si       0.68292567      -2.07505278       0.86169871       0.00000000
Si      -2.21628708       1.06911270       0.26077860       0.00000000
Si       0.72062073       0.11305260      -2.54071783       0.00000000
Si       2.32225353      -0.80663193      -1.10752338       0.00000000
Si      -1.41090948      -2.93492532       0.10198374       0.00000000
Si      -0.80514954       3.13851285      -0.71975723       0.00000000
Si      -0.78014439       1.98262332      -2.84673812       0.00000000
Si       0.43373754       2.87972991       2.53463956       0.00000000
Si       3.23690445       2.11779774       0.64522933       0.00000000
