10
Lattice="16.28999089631971 0.0 0.0 0.0 16.28999089631971 0.0 0.0 0.0 34.53561885213415" Properties=species:S:1:pos:R:3:initial_magmoms:R:1 pbc="T T T"
Si       1.41203349      -1.86854445      -0.26108942       0.00000000
Si      -2.26993005       0.27554535      -0.59190630       0.00000000
Si       1.19469231       1.73727963      -1.07523256       0.00000000
Si      -0.49827852       0.95641848       2.13343905       0.00000000
Si      -2.53076553       1.83588300       1.18453785       0.00000000
Si       2.10618297      -1.21854087      -2.48283610       0.00000000
Si       1.68759513       1.92366981       2.61507306       0.00000000
Si      -0.99173520      -0.90446967       3.47549395       0.00000000
Si      -3.31424937      -1.70416206       0.11434750       0.00000000
Si       1.76127480       3.22136379       0.65151481       0.00000000
