10
Lattice="16.28999089631971 0.0 0.0 0.0 16.28999089631971 0.0 0.0 0.0 34.53561885213415" Properties=species:S:1:pos:R:3:initial_magmoms:R:1 pbc="T T T"
Si      -0.49345668      -1.86088815       1.34205490       0.00000000
Si       0.49827852      -0.95641848      -2.13343905       0.00000000
Si      -2.03248701       0.87946452      -0.94890119       0.00000000
Si       2.18587365       0.96725133       0.48163401       0.00000000
Si      -1.77165153      -0.68087313      -2.72534535       0.00000000
Si       1.67440023      -1.93223835       2.28035365       0.00000000
Si       2.25955332       2.26494531      -1.48192423       0.00000000
Si       3.32117262      -1.09395495       0.75412019       0.00000000
Si       1.69297083       0.78086115      -3.20867161       0.00000000
Si      -2.32658667      -1.39794264       2.70262090       0.00000000
