10
Lattice="16.28999089631971 0.0 0.0 0.0 16.28999089631971 0.0 0.0 0.0 34.53561885213415" Properties=species:S:1:pos:R:3:initial_magmoms:R:1 pbc="T T T"
Si      -0.20701332       2.28129395       0.44298863       0.00000000
Si      -0.47558655      -1.04535699       2.06923730       0.00000000
Si       1.88962371      -0.41723414      -1.43464494       0.00000000
Si       0.08412156      -1.47771218      -2.57874157       0.00000000
Si      -1.84634118       1.01287310       2.41221072       0.00000000
Si      -0.94260456      -3.23641316      -1.08055105       0.00000000
Si      -1.81139913      -2.96072120       1.27367434       0.00000000
Si       1.79745489       0.63502655       3.20069387       0.00000000
Si      -1.80864612       3.20097848      -0.99020582       0.00000000
Si      -2.50541829       1.47195788      -2.46815845       0.00000000
