10
Lattice="16.28999089631971 0.0 0.0 0.0 16.28999089631971 0.0 0.0 0.0 34.53561885213415" Properties=species:S:1:pos:R:3:initial_magmoms:R:1 pbc="T T T"
Si      -0.87912243      -0.43950420      -2.17229164       0.00000000
Si       0.84959585      -2.22182568       0.25770493       0.00000000
Si       1.40468900       1.95862815      -0.28623137       0.00000000
Si      -1.88141355       0.23811093       1.53617972       0.00000000
Si      -3.61893753       0.23270265      -0.01996160       0.00000000
Si       1.29881540      -2.30071815       2.53301638       0.00000000
Si      -1.86650820      -2.65932621      -1.82669351       0.00000000
Si      -2.92478805       0.88270623      -2.24170827       0.00000000
Si      -0.97362072      -3.70750626       0.05353024       0.00000000
Si       0.19481211      -0.74238417       3.88460312       0.00000000
