10
Lattice="16.28999089631971 0.0 0.0 0.0 16.28999089631971 0.0 0.0 0.0 34.53561885213415" Properties=species:S:1:pos:R:3:initial_magmoms:R:1 pbc="T T T"
Si      -0.33200649      -0.99753444      -2.13264473       0.00000000
Si      -2.04884217       0.09207108       1.21372047       0.00000000
Si       1.54043127      -1.50410457       1.02940377       0.00000000
Si       1.06034868       2.15085015       0.08385253       0.00000000
Si      -1.27338930       1.61753184       2.89999207       0.00000000
Si       0.62727903      -3.58008588       0.35267794       0.00000000
Si      -0.46928232       3.32117262       1.49701631       0.00000000
Si       3.55853421      -1.01126691      -0.19447018       0.00000000
Si      -0.04727358      -3.30732612      -1.89431429       0.00000000
Si       1.31476590      -0.15925104      -3.65887818       0.00000000
