10
Lattice="16.28999089631971 0.0 0.0 0.0 16.28999089631971 0.0 0.0 0.0 34.53561885213415" Properties=species:S:1:pos:R:3:initial_magmoms:R:1 pbc="T T T"
Si       1.35930276      -1.35555606       1.36215464       0.00000000
Si      -1.35614250       1.35973198       1.36160207       0.00000000
Si      -1.37217186      -1.34772057      -1.37397964       0.00000000
Si       1.38043089       1.37335650      -1.38258592       0.00000000
Si      -2.71381626      -2.70948312       0.00369531       0.00000000
Si       2.71591767      -2.70962973      -0.00096700       0.00000000
Si      -2.71215468       0.00144981       2.71912893       0.00000000
Si       2.71243161       2.71886846       0.00400613       0.00000000
Si      -2.71261080       2.71918774       0.00341903       0.00000000
Si       0.00283446      -2.71264338       2.71926708       0.00000000
