10
Lattice="16.28999089631971 0.0 0.0 0.0 16.28999089631971 0.0 0.0 0.0 34.53561885213415" Properties=species:S:1:pos:R:3:initial_magmoms:R:1 pbc="T T T"
Si      -1.71546732      -0.97456554      -1.32050466       0.00000000
Si       1.77095106      -1.65529206       0.02603987       0.00000000
Si      -0.86879457       0.27569196       2.35422538       0.00000000
Si       1.02672612       1.75870098      -1.49819052       0.00000000
Si       0.94260456       3.23641316       1.08055105       0.00000000
Si      -0.26798679      -2.17481274      -2.83154244       0.00000000
Si       1.44961452      -2.05504866       2.64871077       0.00000000
Si       2.46664809       0.52975080      -2.85848023       0.00000000
Si       0.46701801       2.19105617       3.14978834       0.00000000
Si       1.09507896      -3.46027293      -1.38173635       0.00000000
