10
Lattice="16.28999089631971 0.0 0.0 0.0 16.28999089631971 0.0 0.0 0.0 34.53561885213415" Properties=species:S:1:pos:R:3:initial_magmoms:R:1 pbc="T T T"
Si      -1.52963100       1.17032247       1.41316378       0.00000000
Si      -0.07791507       1.02428262      -2.16800922       0.00000000
Si      -1.06034868      -2.15085015      -0.08385253       0.00000000
Si       2.22723396       0.34575525       0.82457290       0.00000000
Si      -1.72059867       2.61478935      -1.65536221       0.00000000
Si       2.78969233       2.22847200      -0.48194483       0.00000000
Si      -2.33373798      -0.53331831       2.81613954       0.00000000
Si       0.48008259      -3.65495472       0.94555124       0.00000000
Si      -3.24560331       2.09383515       0.01481579       0.00000000
Si      -3.10919085      -2.05877907       1.12986794       0.00000000
