10
Lattice="16.28999089631971 0.0 0.0 0.0 16.28999089631971 0.0 0.0 0.0 34.53561885213415" Properties=species:S:1:pos:R:3:initial_magmoms:R:1 pbc="T T T"
Si       1.35622200       1.35630588       1.35769954       0.00000000
Si       1.35637023      -1.36071041      -1.35542019       0.00000000
Si      -1.35872709      -1.35898367       1.35676708       0.00000000
Si      -1.36436343       1.35830466      -1.35835572       0.00000000
Si       2.71612586      -0.01182264      -2.68677249       0.00000000
Si       2.71218368       2.71246467       0.00013814       0.00000000
Si       2.71140176      -2.71545197       0.00062164       0.00000000
Si      -0.00075844       2.71349094       2.71453569       0.00000000
Si       2.71391042      -0.00057073       2.71470837       0.00000000
Si      -2.71602618       2.71414254       0.00100153       0.00000000
