10
Lattice="16.28999089631971 0.0 0.0 0.0 16.28999089631971 0.0 0.0 0.0 34.53561885213415" Properties=species:S:1:pos:R:3:initial_magmoms:R:1 pbc="T T T"
Si      -1.35027810      -1.44563976      -1.35982836       0.00000000
Si       1.44741537      -1.25232633       1.50091193       0.00000000
Si      -1.25092539       1.45779210       1.51364176       0.00000000
Si       1.76998995       1.14160320      -1.34746460       0.00000000
Si      -2.56359965       0.28101879      -2.64700613       0.00000000
Si      -2.59100432       2.83252149       0.12504664       0.00000000
Si       0.10094913      -2.60226234       2.88869201       0.00000000
Si      -2.61715303       0.11104893       2.89028065       0.00000000
Si       2.79036297      -2.73127914       0.01947465       0.00000000
Si       0.16187373      -2.78922267      -2.74774659       0.00000000
