10
Lattice="16.28999089631971 0.0 0.0 0.0 16.28999089631971 0.0 0.0 0.0 34.53561885213415" Properties=species:S:1:pos:R:3:initial_magmoms:R:1 pbc="T T T"
Si       1.35573583       1.35777150       1.35769954       0.00000000
Si       1.35708301      -1.35707103      -1.35728512       0.00000000
Si      -1.35804201       1.35741312      -1.35714697       0.00000000
Si      -1.35802572      -1.35746199       1.35731965       0.00000000
Si      -0.00040083      -2.71023246       2.71460477       0.00000000
Si       0.00047514       2.71451673      -2.71398312       0.00000000
Si       2.71443260       0.00006516      -2.71425941       0.00000000
Si       2.71448147      -2.71482624       0.00027629       0.00000000
Si       0.00229023       2.71256193       2.71684958       0.00000000
Si      -0.00181806      -2.71502172      -2.71453569       0.00000000
