10
Lattice="16.28999089631971 0.0 0.0 0.0 16.28999089631971 0.0 0.0 0.0 34.53561885213415" Properties=species:S:1:pos:R:3:initial_magmoms:R:1 pbc="T T T"
Si      -1.35344559       1.35479043       1.35915004       0.00000000
Si      -1.35573583      -1.35777150      -1.35769954       0.00000000
Si       1.35898999       1.35723393      -1.35721604       0.00000000
Si       1.35947869      -1.35490446       1.36149846       0.00000000
Si      -2.71377783      -0.00035838      -2.71484652       0.00000000
Si      -2.71542312       2.71324611      -0.00006907       0.00000000
Si      -2.71376154      -2.71523349      -0.00037989       0.00000000
Si       2.71562119       2.71397916      -0.00031082       0.00000000
Si       0.00134718      -2.71484253      -2.71498466       0.00000000
Si       0.00181145       2.71507059      -2.71501919       0.00000000
