10
Lattice="16.28999089631971 0.0 0.0 0.0 16.28999089631971 0.0 0.0 0.0 34.53561885213415" Properties=species:S:1:pos:R:3:initial_magmoms:R:1 pbc="T T T"
Si       1.12821282       1.73441489       0.92389739       0.00000000
Si      -2.22235348      -0.57352203       0.48522572       0.00000000
Si       1.51011558      -1.54031724      -0.96078145       0.00000000
Si      -2.69571335      -0.16057053      -1.82265284       0.00000000
Si      -1.46158604      -2.67165774       1.30372034       0.00000000
Si      -1.27051412       1.55453419      -2.70731775       0.00000000
Si       2.25077301       2.26687146      -1.08659478       0.00000000
Si      -0.10867059      -3.38353074      -0.58341054       0.00000000
Si       1.10545569       1.47404009      -3.04203715       0.00000000
Si       2.28446073       0.89761158       2.79016874       0.00000000
