10
Lattice="16.28999089631971 0.0 0.0 0.0 16.28999089631971 0.0 0.0 0.0 34.53561885213415" Properties=species:S:1:pos:R:3:initial_magmoms:R:1 pbc="T T T"
Si      -1.34458963      -1.33938009       1.38011317       0.00000000
Si       1.35751086      -1.35198366      -1.35908097       0.00000000
Si      -1.35916918       1.36125756      -1.35780315       0.00000000
Si       1.35863487       1.36414089       1.37935339       0.00000000
Si       2.71422351      -2.70727771      -0.00031082       0.00000000
Si      -0.00037467      -2.71003428      -2.71602073       0.00000000
Si      -2.71581083      -2.71142882       0.00321181       0.00000000
Si       2.71438641       0.00394218      -2.71640062       0.00000000
Si      -2.71500090       0.00400734      -2.71626248       0.00000000
Si       2.71679733       2.71816569       0.00086339       0.00000000
