10
Lattice="16.28999089631971 0.0 0.0 0.0 16.28999089631971 0.0 0.0 0.0 34.53561885213415" Properties=species:S:1:pos:R:3:initial_magmoms:R:1 pbc="T T T"
Si       1.35523026      -1.35413883       1.35614544       0.00000000
Si      -1.36037790       1.35772263       1.35524751       0.00000000
Si       1.34643366       1.35583299      -1.37233920       0.00000000
Si      -1.35904212      -1.34840475      -1.38211969       0.00000000
Si       2.66466933      -0.14600727      -2.64379289       0.00000000
Si       2.71277370      -2.71022431      -0.00359171       0.00000000
Si      -2.71551042      -2.70905144      -0.00210667       0.00000000
Si      -0.00166158      -2.71206834       2.71270531       0.00000000
Si       2.71303434       0.00267156       2.71311973       0.00000000
Si      -2.71681362       0.00273672       2.71270531       0.00000000
