10
Lattice="16.28999089631971 0.0 0.0 0.0 16.28999089631971 0.0 0.0 0.0 34.53561885213415" Properties=species:S:1:pos:R:3:initial_magmoms:R:1 pbc="T T T"
Si      -1.35614250      -1.37174894      -1.32902806       0.00000000
Si      -1.36013355       1.35263201       1.35759594       0.00000000
Si       1.35568638      -1.36081688       1.35700883       0.00000000
Si       1.35646830       1.36064668      -1.38001302       0.00000000
Si      -0.01218492      -2.59618521      -2.78256399       0.00000000
Si       2.63179611      -0.14149657      -2.74692667       0.00000000
Si       2.71551042       2.70905144       0.00210667       0.00000000
Si      -2.71193151       2.71291217      -0.00338449       0.00000000
Si      -0.00130320       2.71178815       2.71481198       0.00000000
Si       2.71384884      -0.00301691       2.71481198       0.00000000
