10
Lattice="16.28999089631971 0.0 0.0 0.0 16.28999089631971 0.0 0.0 0.0 34.53561885213415" Properties=species:S:1:pos:R:3:initial_magmoms:R:1 pbc="T T T"
Si       1.35904212       1.34840475       1.38211969       0.00000000
Si      -1.35646830      -1.36064668       1.38001302       0.00000000
Si       1.27532781      -1.50214325      -1.36691365       0.00000000
Si      -1.36739889       1.30518738      -1.53236699       0.00000000
Si      -0.52281126      -2.11426770      -2.72290510       0.00000000
Si      -2.44079586      -0.59901588      -2.59597588       0.00000000
Si       2.70547578       2.70423774       0.00978049       0.00000000
Si      -2.72204271       2.69477325      -0.01157980       0.00000000
Si      -0.00133578       2.70612738       2.73736720       0.00000000
Si      -2.71261080      -2.73239562       0.05098496       0.00000000
