10
Lattice="16.28999089631971 0.0 0.0 0.0 16.28999089631971 0.0 0.0 0.0 34.53561885213415" Properties=species:S:1:pos:R:3:initial_magmoms:R:1 pbc="T T T"
Si      -0.68577642       1.87766196       1.21579261       0.00000000
Si      -1.05955047      -1.85842414       0.97490653       0.00000000
Si       2.34936009      -0.16802321       0.04448190       0.00000000
Si      -0.75538359       0.10741463      -2.26640125       0.00000000
Si       0.75041514      -1.56494350      -2.89930136       0.00000000
Si       2.83970538       2.06613726       0.40724425       0.00000000
Si       1.35796698       2.41150155       2.23006976       0.00000000
Si      -1.30833135       3.26664510      -0.54849501       0.00000000
Si      -3.06007650      -0.88177348       1.60904992       0.00000000
Si       2.80966662      -0.71691868      -2.14860019       0.00000000
