10
Lattice="16.28999089631971 0.0 0.0 0.0 16.28999089631971 0.0 0.0 0.0 34.53561885213415" Properties=species:S:1:pos:R:3:initial_magmoms:R:1 pbc="T T T"
Si       1.98334008       0.67018689       1.06677133       0.00000000
Si       0.68883894      -1.17452529      -2.02192347       0.00000000
Si      -1.19009853       2.15562312      -0.19308875       0.00000000
Si      -0.62374410      -1.93518684       1.44099950       0.00000000
Si       1.07799075       1.21109634       3.23851040       0.00000000
Si       1.51760898       0.67075704      -3.28817264       0.00000000
Si      -2.03356215      -0.90119538       2.97900961       0.00000000
Si      -1.29885057       1.32993189       3.37834520       0.00000000
Si      -2.58102018       2.34012366       1.69701219       0.00000000
Si       1.29627675      -2.62427013       2.68511133       0.00000000
