10
Lattice="16.28999089631971 0.0 0.0 0.0 16.28999089631971 0.0 0.0 0.0 34.53561885213415" Properties=species:S:1:pos:R:3:initial_magmoms:R:1 pbc="T T T"
Si      -0.89036253       1.03272084      -1.92615615       0.00000000
Si       1.74687444       1.33918461       0.87875931       0.00000000
Si       0.72544257      -2.23018245      -0.40468861       0.00000000
Si      -1.87805781      -0.33545997       1.53697404       0.00000000
Si      -2.66041764       2.17160361      -0.90790739       0.00000000
Si       2.28229416      -2.37965949       1.34720071       0.00000000
Si       3.41958051      -0.31886046       1.05047051       0.00000000
Si      -1.41499827      -3.38115240      -0.32801949       0.00000000
Si      -3.64987224       0.43792407       0.25024523       0.00000000
Si       0.87143355       2.21403906       2.93169579       0.00000000
