10
Lattice="16.28999089631971 0.0 0.0 0.0 16.28999089631971 0.0 0.0 0.0 34.53561885213415" Properties=species:S:1:pos:R:3:initial_magmoms:R:1 pbc="T T T"
Si       1.34346888       1.36218609      -1.38746926       0.00000000
Si      -1.37212299      -1.34912151      -1.38802183       0.00000000
Si      -1.32713001       1.45549521       1.37745393       0.00000000
Si       1.38429162      -1.54465038       1.51024346       0.00000000
Si      -2.36239209      -0.05471811       3.00076706       0.00000000
Si       2.69974170       2.71813311       0.00203760       0.00000000
Si       2.70674640      -2.71717200      -0.02769758       0.00000000
Si      -2.73782772      -2.69389359      -0.02275899       0.00000000
Si       2.70128925       0.00667890      -2.74917494       0.00000000
Si      -0.01431891      -2.70803331      -2.74800073       0.00000000
