10
Lattice="16.28999089631971 0.0 0.0 0.0 16.28999089631971 0.0 0.0 0.0 34.53561885213415" Properties=species:S:1:pos:R:3:initial_magmoms:R:1 pbc="T T T"
Si      -2.21776947      -0.11906361       0.51675675       0.00000000
Si       1.49162643       0.08667909       1.79405733       0.00000000
Si       0.08179209       1.25742510      -2.05687354       0.00000000
Si      -2.04170715      -2.35248777      -0.14273579       0.00000000
Si      -0.65078550      -2.53698831      -2.03283673       0.00000000
Si       2.53583172       2.06609328       1.08759632       0.00000000
Si       1.91902716       2.65295682      -1.41084989       0.00000000
Si      -0.03805344       0.00026064       3.66989505       0.00000000
Si      -2.31254469      -0.00309510       2.88320775       0.00000000
Si       0.77401935      -0.47394126      -3.60424280       0.00000000
