10
Lattice="16.28999089631971 0.0 0.0 0.0 16.28999089631971 0.0 0.0 0.0 34.53561885213415" Properties=species:S:1:pos:R:3:initial_magmoms:R:1 pbc="T T T"
Si      -0.98945460      -1.73367954       1.15815263       0.00000000
Si      -1.17115326       0.76098735      -1.85186999       0.00000000
Si       1.04775651       1.77157008       1.09108442       0.00000000
Si       1.77005511      -1.13888277      -1.01824876       0.00000000
Si      -2.25106623      -1.35858600      -2.08184280       0.00000000
Si       2.74774833       0.78855003      -1.91379239       0.00000000
Si       0.77981859       1.22495913      -3.21640759       0.00000000
Si       2.66041764      -2.17160361       0.90790739       0.00000000
Si      -1.60590078      -3.11233482      -0.63348721       0.00000000
Si       0.78235983      -2.50706358       2.44488143       0.00000000
