10
Lattice="16.28999089631971 0.0 0.0 0.0 16.28999089631971 0.0 0.0 0.0 34.53561885213415" Properties=species:S:1:pos:R:3:initial_magmoms:R:1 pbc="T T T"
Si      -1.50954543       1.54059417       0.96105774       0.00000000
Si      -1.61955180      -1.84243158       0.37747453       0.00000000
Si       2.06469234      -0.12574251       1.43985983       0.00000000
Si       0.43427511       0.80666451      -2.35004657       0.00000000
Si      -0.40710339       3.01599480      -2.08063406       0.00000000
Si      -0.38266839       3.27569650       1.88440256       0.00000000
Si       1.85922657      -2.14001730       2.59448982       0.00000000
Si       0.73968003       3.80785822      -0.12584787       0.00000000
Si      -2.97294618      -1.13046084       2.26394922       0.00000000
Si      -0.46644786      -3.92872446       0.26447392       0.00000000
