10
Lattice="16.28999089631971 0.0 0.0 0.0 16.28999089631971 0.0 0.0 0.0 34.53561885213415" Properties=species:S:1:pos:R:3:initial_magmoms:R:1 pbc="T T T"
Si      -1.12687704      -1.73510233      -0.92334482       0.00000000
Si      -0.99126279       2.09781154       0.34722131       0.00000000
Si       1.15615017      -0.83703463       1.86644403       0.00000000
Si       1.12234842       0.53216172      -2.01025043       0.00000000
Si       0.63827478       3.07232821      -1.07108828       0.00000000
Si       1.66785165       1.26966052       2.76426701       0.00000000
Si      -0.11218923       2.75845249       2.41552614       0.00000000
Si       0.38266839      -3.27569650      -1.88440256       0.00000000
Si       3.15667620      -1.81368529       1.23230064       0.00000000
Si      -0.17935290      -2.19922072       3.19972687       0.00000000
