10
Lattice="16.28999089631971 0.0 0.0 0.0 16.28999089631971 0.0 0.0 0.0 34.53561885213415" Properties=species:S:1:pos:R:3:initial_magmoms:R:1 pbc="T T T"
Si       0.46030653      -0.54889548      -2.19308209       0.00000000
Si       0.49034529       2.23416047       0.36276234       0.00000000
Si       1.31703021      -0.50007435       1.84962517       0.00000000
Si      -2.34936009       0.16802321      -0.04448190       0.00000000
Si       1.18925145       1.64762273      -2.69298546       0.00000000
Si      -0.99139311       2.57952476       2.18558786       0.00000000
Si      -1.59894495      -1.39692030      -2.94378326       0.00000000
Si      -0.20800701      -1.02083307       3.51987224       0.00000000
Si       0.06874380       3.41670044      -1.61685497       0.00000000
Si      -3.03513651       2.04568517       1.17131070       0.00000000
