10
Lattice="16.28999089631971 0.0 0.0 0.0 16.28999089631971 0.0 0.0 0.0 34.53561885213415" Properties=species:S:1:pos:R:3:initial_magmoms:R:1 pbc="T T T"
Si      -0.49034529      -2.23416047      -0.36276234       0.00000000
Si      -0.42160149       1.18253997      -1.97961731       0.00000000
Si      -1.48173840       0.34536429       1.82282552       0.00000000
Si       2.26030266       0.48304737       0.57291170       0.00000000
Si       0.69890616      -0.58653774      -3.05574780       0.00000000
Si       0.82668492      -2.73423482       1.48686283       0.00000000
Si      -0.67228830       2.54713698       2.04343917       0.00000000
Si       1.99498743      -0.88037676       2.59666556       0.00000000
Si       1.67384637       1.87527222       2.37556841       0.00000000
Si      -2.83970538      -2.06613726      -0.40724425       0.00000000
