10
Lattice="16.28999089631971 0.0 0.0 0.0 16.28999089631971 0.0 0.0 0.0 34.53561885213415" Properties=species:S:1:pos:R:3:initial_magmoms:R:1 pbc="T T T"
Si      -0.45776529      -2.07374958      -0.93664104       0.00000000
Si       0.48788550       0.49357071       2.22568374       0.00000000
Si       2.11970367       1.00716183      -0.08868752       0.00000000
Si      -1.84316463       1.48739103      -0.01139676       0.00000000
Si       0.48182562       0.37548450      -3.15279294       0.00000000
Si      -1.53455058      -0.29540286       3.07305015       0.00000000
Si       2.19149370       1.75075146      -2.28998909       0.00000000
Si      -0.70587828       3.54819006      -0.30812696       0.00000000
Si       0.34384932      -3.80580501       0.43252433       0.00000000
Si       0.80296668      -2.38016448      -2.93169579       0.00000000
