10
Lattice="16.28999089631971 0.0 0.0 0.0 16.28999089631971 0.0 0.0 0.0 34.53561885213415" Properties=species:S:1:pos:R:3:initial_magmoms:R:1 pbc="T T T"
Si      -1.35804843      -1.35664749       1.35794129       0.00000000
Si       1.35728280       1.35822762       1.35773408       0.00000000
Si       1.36207206      -1.35783666      -1.35586915       0.00000000
Si      -1.35801585       1.35913986      -1.36066961       0.00000000
Si       2.71925712      -0.00899208      -2.68049737       0.00000000
Si       0.01076769       2.70918990      -2.71869379       0.00000000
Si       2.71353933       2.71438641       0.00044896       0.00000000
Si      -0.00040725      -2.71407690       2.71429394       0.00000000
Si       2.71507059      -2.71404432       0.00117421       0.00000000
Si       2.71445157       0.00140094       2.71467384       0.00000000
