10
Lattice="16.28999089631971 0.0 0.0 0.0 16.28999089631971 0.0 0.0 0.0 34.53561885213415" Properties=species:S:1:pos:R:3:initial_magmoms:R:1 pbc="T T T"
Si      -2.03603124       1.10161125      -0.21505342       0.00000000
Si       0.23099334      -0.93213009      -2.17042672       0.00000000
Si       1.42258566       1.93471443      -0.15002281       0.00000000
Si      -0.29251254      -1.63108512       1.78304046       0.00000000
Si       3.43948477       0.85983507       0.62568216       0.00000000
Si      -1.96424121       1.84520088      -2.41635499       0.00000000
Si      -1.24303404      -2.76685324      -2.02617135       0.00000000
Si      -1.42100229      -3.36516865       0.32380614       0.00000000
Si      -1.78496976      -0.26632521       3.20321497       0.00000000
Si      -0.05467854       0.98275941      -3.58486831       0.00000000
