10
Lattice="16.28999089631971 0.0 0.0 0.0 16.28999089631971 0.0 0.0 0.0 34.53561885213415" Properties=species:S:1:pos:R:3:initial_magmoms:R:1 pbc="T T T"
Si      -1.22492655      -0.35236899      -1.99826656       0.00000000
Si      -0.23613984       2.24469684       0.82578164       0.00000000
Si      -0.45906849      -1.73072128       1.62065389       0.00000000
Si       2.17113120      -0.23483664      -1.13705135       0.00000000
Si       2.04027363       2.74431114       0.44557880       0.00000000
Si      -1.49420025      -2.74091372      -2.02337397       0.00000000
Si       0.09848934       0.62709984      -3.70373998       0.00000000
Si      -1.55667240      -3.42181943       0.28288141       0.00000000
Si       2.91817431       1.96520931      -1.61288337       0.00000000
Si       1.77569145      -1.97703422       2.82656930       0.00000000
