10
Lattice="16.28999089631971 0.0 0.0 0.0 16.28999089631971 0.0 0.0 0.0 34.53561885213415" Properties=species:S:1:pos:R:3:initial_magmoms:R:1 pbc="T T T"
Si      -1.55685159       0.14947704      -1.75188932       0.00000000
Si       1.84316463      -1.48739103       0.01139676       0.00000000
Si       1.13728635       2.06079903      -0.29673020       0.00000000
Si      -1.14795630      -0.21784617       2.12939838       0.00000000
Si       2.33105013      -0.99382032       2.23708050       0.00000000
Si      -0.02114442      -0.44004177      -3.47352541       0.00000000
Si      -2.28229416       2.37965949      -1.34720071       0.00000000
Si       0.30861405      -1.78279389       3.08444691       0.00000000
Si      -0.53541972       3.71884410      -0.46844140       0.00000000
Si       1.81211589       2.95037964       1.74705433       0.00000000
