10
Lattice="16.28999089631971 0.0 0.0 0.0 16.28999089631971 0.0 0.0 0.0 34.53561885213415" Properties=species:S:1:pos:R:3:initial_magmoms:R:1 pbc="T T T"
Si       1.32245478      -1.17252162      -1.53794104       0.00000000
Si       1.45217205       1.06663662       1.67376970       0.00000000
Si      -1.26185598      -1.63074303       1.36243093       0.00000000
Si      -1.38429162       1.54465038      -1.51024346       0.00000000
Si      -1.95408324       0.10062333       2.90980019       0.00000000
Si       2.72960127      -2.55568923      -0.26081314       0.00000000
Si       2.56863978       2.74787865      -0.01733689       0.00000000
Si      -2.88570834      -2.51129898      -0.10664605       0.00000000
Si      -0.03989421      -2.52086121      -2.90030289       0.00000000
Si      -0.11684817       1.49615505       3.55582384       0.00000000
