10
Lattice="16.28999089631971 0.0 0.0 0.0 16.28999089631971 0.0 0.0 0.0 34.53561885213415" Properties=species:S:1:pos:R:3:initial_magmoms:R:1 pbc="T T T"
Si       0.28455372      -2.30964507       0.23860672       0.00000000
Si      -2.16785691       0.07128504      -0.93826422       0.00000000
Si       0.33199020       0.99746928       2.13271380       0.00000000
Si       1.64669094       0.83825082      -1.52623346       0.00000000
Si      -1.67444910       1.93210803      -2.28021551       0.00000000
Si       0.51165261       2.89997838      -1.80034282       0.00000000
Si       1.94476536      -2.57650785      -1.41551220       0.00000000
Si       1.87234002      -0.50666787       3.16204849       0.00000000
Si       0.95926923      -2.58263289       2.48539174       0.00000000
Si       1.97247465      -0.88586649      -3.11801555       0.00000000
