10
Lattice="16.28999089631971 0.0 0.0 0.0 16.28999089631971 0.0 0.0 0.0 34.53561885213415" Properties=species:S:1:pos:R:3:initial_magmoms:R:1 pbc="T T T"
Si       0.56943324       1.48625073       1.72698912       0.00000000
Si      -1.19650050      -1.73789865       1.07557791       0.00000000
Si       1.76749758      -0.70615521      -1.62027400       0.00000000
Si      -0.54780012       1.62968418      -1.92107941       0.00000000
Si       0.91346175      -2.95909479      -1.40829425       0.00000000
Si       0.21554928      -3.60435798       0.81345242       0.00000000
Si      -1.69468128      -0.78094260       3.20860253       0.00000000
Si       0.49142043       0.18692775       3.68847523       0.00000000
Si       2.19082581       2.90346444       0.85589672       0.00000000
Si      -3.46652829      -1.46194605       0.48291183       0.00000000
