10
Lattice="16.28999089631971 0.0 0.0 0.0 16.28999089631971 0.0 0.0 0.0 34.53561885213415" Properties=species:S:1:pos:R:3:initial_magmoms:R:1 pbc="T T T"
Si      -0.49340781      -1.86082299       1.34195129       0.00000000
Si       0.49818078      -0.95695605      -2.13302462       0.00000000
Si      -2.03251959       0.87956226      -0.94910841       0.00000000
Si       2.18610171       0.96787035       0.47987269       0.00000000
Si      -1.77184701      -0.68100345      -2.72569071       0.00000000
Si       1.67444910      -1.93210803       2.28021551       0.00000000
Si       2.26411452       2.26719333      -1.48161341       0.00000000
Si       3.32114004      -1.09385721       0.75398205       0.00000000
Si       1.69468128       0.78094260      -3.20860253       0.00000000
Si      -2.32661925      -1.39789377       2.70255183       0.00000000
