10
Lattice="16.28999089631971 0.0 0.0 0.0 16.28999089631971 0.0 0.0 0.0 34.53561885213415" Properties=species:S:1:pos:R:3:initial_magmoms:R:1 pbc="T T T"
Si      -1.52503722      -0.52075872       1.67024707       0.00000000
Si      -1.31703021       0.50007435      -1.84962517       0.00000000
Si       1.64273247      -1.59032754      -0.51237073       0.00000000
Si       1.16830251       1.85385806       1.10980273       0.00000000
Si      -0.82668492       2.73423482      -1.48686283       0.00000000
Si       0.19090251      -1.44432027       3.06852599       0.00000000
Si       1.72056609      -2.61467532       1.65546581       0.00000000
Si      -2.22022926       1.66816998       2.30180028       0.00000000
Si       1.43361774       3.21728219      -0.91395113       0.00000000
Si      -0.09242946       2.16027296       3.10485748       0.00000000
