10
Lattice="16.28999089631971 0.0 0.0 0.0 16.28999089631971 0.0 0.0 0.0 34.53561885213415" Properties=species:S:1:pos:R:3:initial_magmoms:R:1 pbc="T T T"
Si       0.80404182       1.70354304      -1.40325205       0.00000000
Si      -0.77542029      -1.52563995      -1.68644428       0.00000000
Si      -1.33641531       1.20376584       1.61492098       0.00000000
Si       1.72178784      -1.03488741       1.36315617       0.00000000
Si      -0.20562867      -2.58665652       2.30110957       0.00000000
Si       1.27340559      -1.61764587      -2.90019929       0.00000000
Si       2.33370540       0.53318799      -2.81631222       0.00000000
Si      -3.54656106       1.09032228       0.79193672       0.00000000
Si      -2.27555010      -2.82701547       1.14281880       0.00000000
Si       1.32232446       3.57608084       0.00224482       0.00000000
