10
Lattice="16.28999089631971 0.0 0.0 0.0 16.28999089631971 0.0 0.0 0.0 34.53561885213415" Properties=species:S:1:pos:R:3:initial_magmoms:R:1 pbc="T T T"
Si      -0.55578222       0.48039210      -2.33961681       0.00000000
Si      -1.91707236      -0.72751140       1.35793581       0.00000000
Si       0.71027658       1.84635977       1.46890917       0.00000000
Si       1.75282029      -1.79299143       0.45937825       0.00000000
Si      -2.11507731       2.25926729      -1.81170504       0.00000000
Si      -1.66136823      -1.61567478      -2.78122401       0.00000000
Si       2.07948366       0.54487081       2.96996615       0.00000000
Si      -2.00424015      -3.03267672      -0.89464571       0.00000000
Si      -0.67351005      -2.17626255       2.97866222       0.00000000
Si       0.65458107      -3.56521311       1.62882644       0.00000000
