10
Lattice="16.28999089631971 0.0 0.0 0.0 16.28999089631971 0.0 0.0 0.0 34.53561885213415" Properties=species:S:1:pos:R:3:initial_magmoms:R:1 pbc="T T T"
Si       0.44914788      -0.24779696      -2.26685022       0.00000000
Si      -0.85033800       2.04652084       0.72151855       0.00000000
Si       2.24494023      -0.75734002       0.43452740       0.00000000
Si      -1.88716392      -0.87983756       1.26372807       0.00000000
Si       0.23346828       2.00100658       2.82142349       0.00000000
Si      -0.50779188      -1.51324230       3.23274294       0.00000000
Si       2.26893051      -2.10458559      -1.99550371       0.00000000
Si       3.56601851       1.33437091       0.12726383       0.00000000
Si      -3.26471148       1.18935733       1.59378517       0.00000000
Si      -1.35200484      -1.31227257      -3.38829146       0.00000000
