10
Lattice="16.28999089631971 0.0 0.0 0.0 16.28999089631971 0.0 0.0 0.0 34.53561885213415" Properties=species:S:1:pos:R:3:initial_magmoms:R:1 pbc="T T T"
Si      -1.26073197       0.30641490       1.99505474       0.00000000
Si       2.10973419      -0.48113818       1.03189033       0.00000000
Si       0.26531523       1.36342413      -2.02375386       0.00000000
Si      -1.16830251      -1.85385806      -1.10980273       0.00000000
Si      -0.32114106       2.75564898      -0.22109716       0.00000000
Si      -1.99498743       0.88037676      -2.59666556       0.00000000
Si      -3.38853177      -0.18568808       1.19199755       0.00000000
Si      -2.69333973      -2.37461678       0.56044434       0.00000000
Si       2.05537446      -0.00926901      -3.05025663       0.00000000
Si      -0.45911736      -1.42564053       3.36422012       0.00000000
