10
Lattice="16.28999089631971 0.0 0.0 0.0 16.28999089631971 0.0 0.0 0.0 34.53561885213415" Properties=species:S:1:pos:R:3:initial_magmoms:R:1 pbc="T T T"
Si      -0.80161461       1.73205543      -1.36916537       0.00000000
Si      -0.51828264      -1.87253780      -1.40549687       0.00000000
Si       2.39088330       0.34618694       0.01764771       0.00000000
Si      -1.55315376      -0.27624812       2.05428336       0.00000000
Si       2.56885155       0.94450235      -2.33232979       0.00000000
Si       0.45911736       1.42564053      -3.36422012       0.00000000
Si      -2.23422237      -0.94897625      -2.80377578       0.00000000
Si      -1.32232446      -3.57608084      -0.00224482       0.00000000
Si      -0.34384932       3.80580501      -0.43252433       0.00000000
Si      -2.92941441       1.23995245      -2.17222257       0.00000000
