10
Lattice="16.28999089631971 0.0 0.0 0.0 16.28999089631971 0.0 0.0 0.0 34.53561885213415" Properties=species:S:1:pos:R:3:initial_magmoms:R:1 pbc="T T T"
Si       1.35718506       1.34884458      -1.32462822       0.00000000
Si       1.35299853      -1.35620766       1.35704337       0.00000000
Si      -1.36207206       1.35783666       1.35586915       0.00000000
Si      -1.34328969      -1.39069359      -1.35414237       0.00000000
Si      -0.03280806       2.57245164      -2.67121419       0.00000000
Si       2.59955820       0.00793323      -2.73011817       0.00000000
Si       2.70461241      -2.71202762      -0.00231389       0.00000000
Si      -2.76848550      -0.14748966      -2.64310218       0.00000000
Si       2.70943425       0.00156384       2.71408673       0.00000000
Si      -0.00513135      -2.71302782       2.71353416       0.00000000
