10
Lattice="16.28999089631971 0.0 0.0 0.0 16.28999089631971 0.0 0.0 0.0 34.53561885213415" Properties=species:S:1:pos:R:3:initial_magmoms:R:1 pbc="T T T"
Si      -0.28455372       2.30964507      -0.23860672       0.00000000
Si       1.66021164      -0.26686278      -1.65411892       0.00000000
Si       0.67471551      -0.27298782       2.24678501       0.00000000
Si      -1.64577870      -1.41768612      -0.93215141       0.00000000
Si       1.94399973      -2.23259337       2.07403775       0.00000000
Si      -2.45241063       2.38093011      -1.17687094       0.00000000
Si      -3.16327365       0.15183909      -1.83159757       0.00000000
Si      -2.11180302      -2.93599557       0.87910467       0.00000000
Si       1.58778630       1.80297720       2.92344177       0.00000000
Si      -0.66658680      -2.27362788      -2.96274333       0.00000000
