10
Lattice="16.28999089631971 0.0 0.0 0.0 16.28999089631971 0.0 0.0 0.0 34.53561885213415" Properties=species:S:1:pos:R:3:initial_magmoms:R:1 pbc="T T T"
Si      -1.72836900      -0.83785986       1.43840384       0.00000000
Si       1.66047228      -1.78294050      -0.15782787       0.00000000
Si       0.91730619       1.90992105       1.29198655       0.00000000
Si      -1.41982011      -0.74358963      -1.89914928       0.00000000
Si      -0.33837588      -2.06146692       2.78498982       0.00000000
Si       2.37372993       0.65995677       2.72854132       0.00000000
Si       0.90399726      -3.40237827       1.37949986       0.00000000
Si      -2.78319537      -2.62987389       0.19660832       0.00000000
Si       3.55865054      -0.86333742       1.26385037       0.00000000
Si      -1.77969879       0.98761383      -3.34032146       0.00000000
