10
Lattice="16.28999089631971 0.0 0.0 0.0 16.28999089631971 0.0 0.0 0.0 34.53561885213415" Properties=species:S:1:pos:R:3:initial_magmoms:R:1 pbc="T T T"
Si       1.35549090       1.35610992       1.35725058       0.00000000
Si       1.35715248      -1.35747828      -1.35749233       0.00000000
Si      -1.35747828       1.35790182      -1.35797583       0.00000000
Si      -1.36008468      -1.35920502       1.35666347       0.00000000
Si      -2.71042794      -0.00037467       2.71484652       0.00000000
Si       0.00265527       2.71518462       2.71249809       0.00000000
Si      -2.71497285       2.71490769      -0.00044896       0.00000000
Si       2.71450676       2.71546155       0.00017268       0.00000000
Si       2.71567689      -0.00039096      -2.71429394       0.00000000
Si      -0.00102627       2.71498914      -2.71508826       0.00000000
