10
Lattice="16.28999089631971 0.0 0.0 0.0 16.28999089631971 0.0 0.0 0.0 34.53561885213415" Properties=species:S:1:pos:R:3:initial_magmoms:R:1 pbc="T T T"
Si       0.32578371      -1.72411731      -1.59178210       0.00000000
Si      -1.13503833       2.06172756      -0.27410936       0.00000000
Si       2.09030022      -0.33674688       1.06442290       0.00000000
Si      -1.64669094      -0.83825082       1.52623346       0.00000000
Si       0.29807442      -3.41475867       0.11072126       0.00000000
Si      -3.32114004       1.09385721      -0.75398205       0.00000000
Si       2.40282387      -2.70575271       0.75608873       0.00000000
Si      -0.33223455       3.33440010       1.57499778       0.00000000
Si      -1.36213722      -3.14789589       1.76484018       0.00000000
Si      -1.41090948      -1.72955817      -3.14913216       0.00000000
