10
Lattice="16.28999089631971 0.0 0.0 0.0 16.28999089631971 0.0 0.0 0.0 34.53561885213415" Properties=species:S:1:pos:R:3:initial_magmoms:R:1 pbc="T T T"
Si      -1.17735161      -1.34763912       1.53162102       0.00000000
Si       1.38038202      -1.27514862      -1.48157888       0.00000000
Si       0.93849948       1.80540441       1.35763047       0.00000000
Si      -1.34846014       1.42003188      -1.47228879       0.00000000
Si      -1.87913621       0.61605522       2.85523388       0.00000000
Si      -2.60804236      -2.53361628      -0.05221788       0.00000000
Si       2.60631855       2.80525203      -0.06713728       0.00000000
Si       2.80315062      -2.64051126      -0.07874125       0.00000000
Si       0.02174715      -2.63928951      -2.86093226       0.00000000
Si      -2.69411255       0.08469171      -2.86255544       0.00000000
