10
Lattice="16.28999089631971 0.0 0.0 0.0 16.28999089631971 0.0 0.0 0.0 34.53561885213415" Properties=species:S:1:pos:R:3:initial_magmoms:R:1 pbc="T T T"
Si       1.35941679      -1.35654975       1.35542019       0.00000000
Si      -1.35821133      -1.35682668      -1.35752686       0.00000000
Si       1.35738054       1.35773562      -1.35756140       0.00000000
Si      -1.35935163       1.36011352       1.36222371       0.00000000
Si       2.71665072      -0.01251072       2.70434768       0.00000000
Si       2.71225242      -2.71562445       0.00017268       0.00000000
Si      -0.00071676      -2.71383255      -2.71505373       0.00000000
Si      -2.71518462      -2.71397916      -0.00020721       0.00000000
Si       2.71451673       0.00037467      -2.71519187       0.00000000
Si       2.71423980       2.71554693      -0.00034536       0.00000000
