10
Lattice="16.28999089631971 0.0 0.0 0.0 16.28999089631971 0.0 0.0 0.0 34.53561885213415" Properties=species:S:1:pos:R:3:initial_magmoms:R:1 pbc="T T T"
Si       0.11226091       0.42854103      -2.35301663       0.00000000
Si      -1.42258566      -1.93471443       0.15002281       0.00000000
Si      -0.76516899       2.28620376       0.04296233       0.00000000
Si       2.01689911      -1.07487936       0.77570497       0.00000000
Si      -3.45861691      -0.83310318      -0.06503061       0.00000000
Si       1.28199205       3.43148850       0.23249392       0.00000000
Si      -1.19159232      -2.86684452      -2.02040390       0.00000000
Si       2.31989311       1.08605430      -2.87633516       0.00000000
Si      -1.47726421      -0.95195502      -3.43484550       0.00000000
Si       2.93633929       2.46470958      -1.08469532       0.00000000
