10
Lattice="16.28999089631971 0.0 0.0 0.0 16.28999089631971 0.0 0.0 0.0 34.53561885213415" Properties=species:S:1:pos:R:3:initial_magmoms:R:1 pbc="T T T"
Si       1.35060390       1.44588411       1.36000104       0.00000000
Si      -1.43795577      -1.32636438       1.40862376       0.00000000
Si       1.51205409      -1.34351775      -1.38788369       0.00000000
Si      -1.21334436       1.72688661      -1.28714323       0.00000000
Si       0.97164963       1.70217468      -2.54358429       0.00000000
Si       2.83252149       0.20131182      -2.52272476       0.00000000
Si       0.08358399      -2.52845235       2.86138265       0.00000000
Si      -2.62287638       0.19692981       2.87331471       0.00000000
Si       2.79766089       0.19336230       2.86042947       0.00000000
Si      -3.33613403      -2.24596746      -0.01305447       0.00000000
