10
Lattice="16.28999089631971 0.0 0.0 0.0 16.28999089631971 0.0 0.0 0.0 34.53561885213415" Properties=species:S:1:pos:R:3:initial_magmoms:R:1 pbc="T T T"
Si      -1.36632212      -1.34664543       1.37682193       0.00000000
Si       1.34752509       1.37106414       1.37658018       0.00000000
Si      -1.34025812       1.37500632      -1.38856750       0.00000000
Si       1.25110458      -1.45756404      -1.51328605       0.00000000
Si       2.69816157      -2.71008585      -0.01285762       0.00000000
Si      -2.72237570      -2.70651834       0.00002763       0.00000000
Si       2.69539227       2.73346200       0.00209631       0.00000000
Si      -0.00951336      -2.70308115       2.73742246       0.00000000
Si       2.70531288       0.01159848       2.73645546       0.00000000
Si      -2.71755319       2.73733902      -0.00054566       0.00000000
