10
Lattice="16.28999089631971 0.0 0.0 0.0 16.28999089631971 0.0 0.0 0.0 34.53561885213415" Properties=species:S:1:pos:R:3:initial_magmoms:R:1 pbc="T T T"
Si       1.34025812      -1.37500632       1.38856750       0.00000000
Si      -1.37729506       1.36233270       1.38802183       0.00000000
Si      -1.62177606      -1.17788103      -1.38712187       0.00000000
Si       1.25484965       1.61183034      -1.44376032       0.00000000
Si       0.02741444      -2.55156786      -2.77186282       0.00000000
Si      -2.45979882       2.89144242      -0.17615248       0.00000000
Si      -0.52977361       3.11231853      -2.17294578       0.00000000
Si       2.59136270      -2.83257036      -0.12471855       0.00000000
Si       2.68778321      -0.00394218       2.76514767       0.00000000
Si      -0.02601024       2.70712107       2.77032802       0.00000000
