10
Lattice="16.28999089631971 0.0 0.0 0.0 16.28999089631971 0.0 0.0 0.0 34.53561885213415" Properties=species:S:1:pos:R:3:initial_magmoms:R:1 pbc="T T T"
Si       1.35693944      -1.35717040      -1.35676708       0.00000000
Si       1.35583172       1.35725022       1.35845933       0.00000000
Si      -1.35828820      -1.35730235       1.35714697       0.00000000
Si      -1.35887464       1.35843939      -1.35642172       0.00000000
Si       2.71288320      -0.00102627      -2.71432848       0.00000000
Si       0.00073115      -2.71346530      -2.71446662       0.00000000
Si       2.71462623      -2.71404162       0.00024175       0.00000000
Si      -2.71531036       0.00066789      -2.71346509       0.00000000
Si       2.71389318       2.71568961       0.00034536       0.00000000
Si      -0.00240634       2.71549413      -2.71446662       0.00000000
