10
Lattice="16.28999089631971 0.0 0.0 0.0 16.28999089631971 0.0 0.0 0.0 34.53561885213415" Properties=species:S:1:pos:R:3:initial_magmoms:R:1 pbc="T T T"
Si       2.21776947       0.11906361      -0.51675675       0.00000000
Si       0.17606232      -2.23342416      -0.65949255       0.00000000
Si      -0.09477522       0.11596851       2.36645100       0.00000000
Si      -1.39880601       1.41670872      -1.34889295       0.00000000
Si      -2.83144635       1.76603148       0.63531760       0.00000000
Si      -1.24787916       2.20226139       2.47945161       0.00000000
Si       1.45823193      -3.24361593       1.02184046       0.00000000
Si       2.29956156       1.37648871      -2.57363029       0.00000000
Si      -1.57152888       0.05779692      -3.45162982       0.00000000
Si       2.17971603       0.11932425       3.15313830       0.00000000
