10
Lattice="16.28999089631971 0.0 0.0 0.0 16.28999089631971 0.0 0.0 0.0 34.53561885213415" Properties=species:S:1:pos:R:3:initial_magmoms:R:1 pbc="T T T"
Si      -0.01726740      -0.99305469      -2.12186961       0.00000000
Si       0.64516545      -1.75374882       1.44835559       0.00000000
Si       1.07991297       2.11957335       0.22997281       0.00000000
Si      -2.15058625      -0.29647800       1.07499081       0.00000000
Si       2.25106623       1.35858600       2.08184280       0.00000000
Si      -3.24059318      -0.25458012      -1.02443063       0.00000000
Si      -1.56246675      -2.41126209       1.97167412       0.00000000
Si       1.26161163      -0.37509354       3.23999543       0.00000000
Si       0.70521039       0.79483797      -3.46458068       0.00000000
Si      -2.13686356      -1.81444536      -2.37736426       0.00000000
