10
Lattice="16.28999089631971 0.0 0.0 0.0 16.28999089631971 0.0 0.0 0.0 34.53561885213415" Properties=species:S:1:pos:R:3:initial_magmoms:R:1 pbc="T T T"
Si       2.04716104       1.14528474       0.18953158       0.00000000
Si      -0.92686257       1.20189249       1.85970958       0.00000000
Si       0.76516899      -2.28620376      -0.04296233       0.00000000
Si       0.87742990      -1.85766273      -2.39597897       0.00000000
Si       0.28931040       0.25712136      -3.29266228       0.00000000
Si      -0.95971950       2.15272350      -2.68372991       0.00000000
Si      -2.97787131       1.65985326      -1.45989050       0.00000000
Si      -3.16276281       1.72970478       0.95380525       0.00000000
Si       1.51218115       3.44008962       0.00020721       0.00000000
Si       3.70150828       0.17850582      -1.12765766       0.00000000
