10
Lattice="16.28999089631971 0.0 0.0 0.0 16.28999089631971 0.0 0.0 0.0 34.53561885213415" Properties=species:S:1:pos:R:3:initial_magmoms:R:1 pbc="T T T"
Si      -1.64562299      -0.31170915      -1.76504739       0.00000000
Si       1.21334436      -1.72688661       1.28714323       0.00000000
Si       2.18499399      -0.02471193      -1.25644105       0.00000000
Si      -1.64919050       1.37368683       1.38474095       0.00000000
Si      -0.58353224       1.89890901      -1.75423774       0.00000000
Si       2.56394826      -0.28100250       2.64714427       0.00000000
Si       1.32840063      -0.36831690      -3.43522539       0.00000000
Si      -0.02741444       2.55156786       2.77186282       0.00000000
Si      -2.86595576      -0.27999252       2.72390318       0.00000000
Si      -0.71876041      -1.51360164      -3.62475697       0.00000000
