10
Lattice="16.28999089631971 0.0 0.0 0.0 16.28999089631971 0.0 0.0 0.0 34.53561885213415" Properties=species:S:1:pos:R:3:initial_magmoms:R:1 pbc="T T T"
Si      -1.01127735      -1.79812278      -1.24697829       0.00000000
Si       0.33809569      -1.20961395       2.06208842       0.00000000
Si       1.87122904       0.93856748      -1.20373967       0.00000000
Si      -1.81978263       1.85678863      -0.27134651       0.00000000
Si      -0.02399028       1.34724557       2.43003111       0.00000000
Si      -2.18519991      -0.43056099      -2.75387179       0.00000000
Si       0.54108864       2.31141158      -2.71933615       0.00000000
Si      -2.26893051       2.10458559       1.99550371       0.00000000
Si      -2.87789958      -2.61747720       0.13057925       0.00000000
Si      -3.62093535       0.79231302      -1.39278775       0.00000000
