10
Lattice="10.86 0.0 0.0 0.0 10.86 0.0 0.0 0.0 10.86" Properties=species:S:1:pos:R:3:initial_magmoms:R:1 pbc="T T T"
Si      -1.23115476      -1.27582194       1.24790088       0.00000000
Si      -1.23115476       1.43917806      -1.46709912       0.00000000
Si       1.48384524       1.43917806       1.24790088       0.00000000
Si      -2.58865476       0.08167806       2.60540088       0.00000000
Si       0.12634524      -2.63332194       2.60540088       0.00000000
Si      -2.71460904      -2.62087638      -0.04511244       0.00000000
Si      -2.58865476       2.79667806      -0.10959912       0.00000000
Si       0.12634524       2.79667806       2.60540088       0.00000000
Si       2.84134524       0.08167806       2.60540088       0.00000000
Si       0.12634524       2.79667806      -2.82459912       0.00000000
