10
Lattice="16.290000149 0.0 0.0 0.0 16.290000149 0.0 0.0 0.0 29.1751946751" Properties=species:S:1:pos:R:3:initial_magmoms:R:1 pbc="T T T"
Si       1.33032775      -1.35897697       1.37377239       0.00000000
Si      -1.37040767      -1.36910935      -1.32504982       0.00000000
Si      -1.36512971       1.35149986       1.34944028       0.00000000
Si       1.36816942       1.36616086      -1.34272998       0.00000000
Si      -2.69551773       0.01521486      -2.68414709       0.00000000
Si       0.00980006      -2.71661979      -2.66582506       0.00000000
Si       2.68407563       0.01247814       2.71626897       0.00000000
Si      -0.02403752       2.71181261       2.70693291       0.00000000
Si       2.72682059       0.01137042      -2.69771355       0.00000000
Si       2.71346279      -2.71323147       0.03836538       0.00000000
