10
Lattice="16.290000149 0.0 0.0 0.0 16.290000149 0.0 0.0 0.0 29.1751946751" Properties=species:S:1:pos:R:3:initial_magmoms:R:1 pbc="T T T"
Si       1.31193145       1.35982405       1.34510485       0.00000000
Si      -1.37453392       1.26486964      -1.41672995       0.00000000
Si       1.28749645      -1.44884890      -1.32758514       0.00000000
Si      -1.42794883      -1.39092166       1.27983993       0.00000000
Si      -2.18439128      -0.59466646      -2.59647329       0.00000000
Si      -0.55161199      -2.33004017      -2.51267280       0.00000000
Si       2.62086554       2.64909611      -0.12504197       0.00000000
Si       2.62861958      -0.03261258       2.68547164       0.00000000
Si      -0.10697643       2.69040755       2.64693121       0.00000000
Si       2.53656479      -2.82033660       0.08450887       0.00000000
