10
Lattice="16.290000149 0.0 0.0 0.0 16.290000149 0.0 0.0 0.0 29.1751946751" Properties=species:S:1:pos:R:3:initial_magmoms:R:1 pbc="T T T"
Si       0.43849422      -0.24884604       2.28254119       0.00000000
Si      -1.71585830       1.63229059       0.10406792       0.00000000
Si      -0.04937499      -2.29459313      -0.66417331       0.00000000
Si       1.86826754       0.89679709      -1.27912806       0.00000000
H       -0.91709443       0.16809651      -2.52864330       0.00000000
Si       2.15462945      -2.67643073       0.13724012       0.00000000
Si      -0.31905594       3.36702900      -0.81611772       0.00000000
Si       2.07127352      -1.98421976       2.36634169       0.00000000
Si       3.46299339       1.71022196       0.28119053       0.00000000
Si      -3.77496318       0.62411878      -0.61320424       0.00000000
