10
Lattice="16.290000149 0.0 0.0 0.0 16.290000149 0.0 0.0 0.0 29.1751946751" Properties=species:S:1:pos:R:3:initial_magmoms:R:1 pbc="T T T"
Si       1.66863359      -1.68953366      -0.24165814       0.00000000
Si      -1.86300587      -0.84330073      -1.24896091       0.00000000
Si      -0.63689014       0.33410790       2.32797631       0.00000000
Si       0.68610223       1.86194702      -1.42214486       0.00000000
H        2.21778578       0.79959466       1.12630839       0.00000000
H       -1.06605019       2.49955391       0.12238994       0.00000000
H       -2.61711884      -0.28878912       1.25803439       0.00000000
H        0.58503907      -1.61891650       2.55455087       0.00000000
H       -0.50362164       2.38467683      -2.21077955       0.00000000
H       -3.27098316       0.12768102       1.19714576       0.00000000
