10
Lattice="16.290000149 0.0 0.0 0.0 16.290000149 0.0 0.0 0.0 29.1751946751" Properties=species:S:1:pos:R:3:initial_magmoms:R:1 pbc="T T T"
Si       1.25859799       1.36809937      -1.42559337       0.00000000
Si       1.37453392      -1.26486964       1.41672995       0.00000000
Si      -0.80985736      -1.85953610      -1.17974334       0.00000000
Si      -1.42693885       1.37551132       1.29316133       0.00000000
Si      -2.68424993      -2.66183489       0.01495812       0.00000000
Si      -0.05341491      -2.65579130       2.69656988       0.00000000
Si       2.66203037      -2.71371854       0.08914481       0.00000000
Si       2.64717389       2.74680354      -0.08433090       0.00000000
Si      -0.08345367       2.74463697       2.65624976       0.00000000
Si      -0.19186362       2.78387958      -2.64464971       0.00000000
