10
Lattice="16.290000149 0.0 0.0 0.0 16.290000149 0.0 0.0 0.0 29.1751946751" Properties=species:S:1:pos:R:3:initial_magmoms:R:1 pbc="T T T"
Si       1.70864183      -1.03099411      -1.15985986       0.00000000
Si       1.44778191       1.42366456       1.14673103       0.00000000
Si      -1.27749439       1.36920709      -1.40668201       0.00000000
Si      -1.62342883      -1.10861596       1.40140130       0.00000000
H        0.95580761      -2.01565946      -2.19887607       0.00000000
H        0.27175304      -2.71564076       1.61473032       0.00000000
H       -1.07427664       1.38051235       2.76936783       0.00000000
Si      -2.60596019       2.44286471       0.22091457       0.00000000
Si      -0.04608441       2.49377096       2.56648353       0.00000000
Si      -3.29206242       0.58091770       1.64305944       0.00000000
