10
Lattice="16.290000149 0.0 0.0 0.0 16.290000149 0.0 0.0 0.0 29.1751946751" Properties=species:S:1:pos:R:3:initial_magmoms:R:1 pbc="T T T"
Si      -1.37122868       1.33999912      -1.35895139       0.00000000
Si      -1.32884699      -1.39434256       1.35130749       0.00000000
Si       1.29652111      -1.35980776      -1.41823539       0.00000000
Si       1.35814618       1.38644191       1.35014048       0.00000000
Si       0.12730635      -2.55112805       2.78798160       0.00000000
Si      -2.73225657      -0.08021196       2.66395785       0.00000000
Si       2.61009785      -2.78324427      -0.11923902       0.00000000
Si      -0.01197315       2.68959305      -2.71375991       0.00000000
Si      -2.71109506       2.70063767       0.01517110       0.00000000
Si       2.81373915       0.04557942       2.59854706       0.00000000
