10
Lattice="16.290000149 0.0 0.0 0.0 16.290000149 0.0 0.0 0.0 29.1751946751" Properties=species:S:1:pos:R:3:initial_magmoms:R:1 pbc="T T T"
Si       1.73959283       0.31869756      -1.49695006       0.00000000
Si      -1.91384696       1.06561036      -0.77856925       0.00000000
Si       0.64974295       0.68029158       2.14294722       0.00000000
Si      -0.03205872      -2.14061353       0.98440024       0.00000000
Si       1.87893749      -1.98160684      -1.73084760       0.00000000
Si      -0.59655610      -1.10127894       2.99048663       0.00000000
H        1.34107426       2.99500449       0.00598091       0.00000000
Si      -0.75069208       2.50651626      -2.28085837       0.00000000
Si      -2.88277617       1.47729776       1.37453095       0.00000000
Si       2.16127577      -2.86502984       0.51380435       0.00000000
