10
Lattice="16.290000149 0.0 0.0 0.0 16.290000149 0.0 0.0 0.0 29.1751946751" Properties=species:S:1:pos:R:3:initial_magmoms:R:1 pbc="T T T"
Si       1.33942897       1.37741725      -1.31647231       0.00000000
Si       1.55792674      -1.31452156       1.18022415       0.00000000
Si      -1.36624231       1.36935370       1.34465555       0.00000000
Si      -1.40753746      -1.32545215      -1.35828036       0.00000000
Si       2.56507229       2.80926265       0.11325811       0.00000000
Si       2.64619649       0.02906136      -2.74550252       0.00000000
Si      -0.06250473       2.71871306      -2.67419834       0.00000000
Si       2.62946666      -2.74639629      -0.31447942       0.00000000
Si      -2.78163156      -2.64262898       0.00860668       0.00000000
Si      -2.71230131       0.08166177       2.71799031       0.00000000
