10
Lattice="16.290000149 0.0 0.0 0.0 16.290000149 0.0 0.0 0.0 29.1751946751" Properties=species:S:1:pos:R:3:initial_magmoms:R:1 pbc="T T T"
H       -0.89998993       0.74231902       0.97865273       0.00000000
Si       1.15030207       1.64108719      -1.18022415       0.00000000
Si       1.40157744      -1.17157681       1.45969334       0.00000000
Si      -1.59207058      -1.12959748      -1.33998752       0.00000000
Si      -1.98246044       2.45353466       1.76175668       0.00000000
Si      -0.61828696       2.79603192      -2.21270511       0.00000000
Si       2.61964216       0.43430769      -2.51589374       0.00000000
Si      -0.05857884      -2.35147781       2.87418263       0.00000000
Si      -2.23332644       2.96849415      -0.53600668       0.00000000
Si       2.86310762      -2.45016263       0.11588387       0.00000000
