10
Lattice="16.290000149 0.0 0.0 0.0 16.290000149 0.0 0.0 0.0 29.1751946751" Properties=species:S:1:pos:R:3:initial_magmoms:R:1 pbc="T T T"
Si       1.36519975       1.35586558       1.34652276       0.00000000
Si       1.36723600      -1.36226755      -1.33984164       0.00000000
Si      -1.34745994       1.36049194      -1.36574921       0.00000000
Si      -1.34806267      -1.34775316       1.37858630       0.00000000
Si      -0.00871515       2.71943633       2.68009173       0.00000000
Si       2.71586882      -0.02050911       2.68785234       0.00000000
Si      -2.69562035      -2.70962975       0.02730798       0.00000000
Si       2.72199386       0.01295055      -2.68335936       0.00000000
Si       0.02179602      -2.72007164      -2.70118540       0.00000000
Si      -2.70775640       0.00638568      -2.71921567       0.00000000
