10
Lattice="16.290000149 0.0 0.0 0.0 16.290000149 0.0 0.0 0.0 29.1751946751" Properties=species:S:1:pos:R:3:initial_magmoms:R:1 pbc="T T T"
Si      -1.30248325      -1.35503479       1.43324603       0.00000000
Si       1.36118101      -1.45766179      -1.28566039       0.00000000
Si       1.39108130       1.28594890       1.43455891       0.00000000
Si      -1.30075651       1.52958214      -1.31861669       0.00000000
Si       2.70586676       0.00534312      -2.51851221       0.00000000
Si      -2.53237826       2.73036790       0.27742984       0.00000000
Si      -2.64964997      -2.68710068       0.04516904       0.00000000
Si       2.80277598       2.67729410       0.17919696       0.00000000
Si      -2.64733679      -0.05260041       2.85577017       0.00000000
Si       0.10902376       2.63065583       2.88993432       0.00000000
