10
Lattice="16.290000149 0.0 0.0 0.0 16.290000149 0.0 0.0 0.0 29.1751946751" Properties=species:S:1:pos:R:3:initial_magmoms:R:1 pbc="T T T"
Si      -1.35938422      -1.36485766      -1.33143918       0.00000000
Si      -1.34550514       1.34848621       1.36738302       0.00000000
Si       1.33678999      -1.37569051       1.35250367       0.00000000
Si       1.33882624       1.35790183      -1.37963661       0.00000000
Si      -2.70067025       2.67761990      -0.02205645       0.00000000
Si       2.67788217      -0.01537776       2.70999631       0.00000000
Si       0.00640197      -2.71197551      -2.68108369       0.00000000
Si      -2.68789889       0.00213399      -2.70737054       0.00000000
Si       2.69105101       2.71011845      -0.01762182       0.00000000
Si      -2.72254772      -0.02753010       2.68613100       0.00000000
