10
Lattice="16.290000149 0.0 0.0 0.0 16.290000149 0.0 0.0 0.0 29.1751946751" Properties=species:S:1:pos:R:3:initial_magmoms:R:1 pbc="T T T"
Si       1.35270532       1.39740508      -1.32055975       0.00000000
Si      -1.35218404       1.36876726       1.35778439       0.00000000
Si       1.37567422      -1.34721559       1.35988500       0.00000000
Si      -1.36236529      -1.36712197      -1.36312928       0.00000000
Si       2.73479781       0.04136031      -2.64481601       0.00000000
Si      -2.70834284      -2.69809643       0.01607553       0.00000000
Si       2.68985369       2.72201015       0.08373281       0.00000000
Si      -2.69795145       0.01642032       2.72227906       0.00000000
Si       0.02021589      -2.69158043       2.73502862       0.00000000
Si      -2.71828300       2.71687880      -0.01356647       0.00000000
