10
Lattice="16.290000149 0.0 0.0 0.0 16.290000149 0.0 0.0 0.0 29.1751946751" Properties=species:S:1:pos:R:3:initial_magmoms:R:1 pbc="T T T"
Si       1.34550514      -1.34848621      -1.36738302       0.00000000
Si      -1.37704258      -1.37601631       1.31874797       0.00000000
Si      -1.35516511       1.32913369      -1.38943947       0.00000000
Si       1.36814824       1.33924978       1.37604806       0.00000000
Si      -2.72844470      -0.01650177       2.66191559       0.00000000
Si      -0.01573614       2.68222997       2.71183434       0.00000000
Si       2.68229513      -2.72417672      -0.01487935       0.00000000
Si      -0.02977812      -2.70920621       2.69783025       0.00000000
Si      -2.73427652       2.67558365      -0.06794903       0.00000000
Si      -0.01387908      -2.71334387      -2.69882221       0.00000000
