10
Lattice="16.290000149 0.0 0.0 0.0 16.290000149 0.0 0.0 0.0 29.1751946751" Properties=species:S:1:pos:R:3:initial_magmoms:R:1 pbc="T T T"
Si      -0.37398582       0.86835475       2.13612023       0.00000000
Si      -1.84466333      -0.91755055      -1.11770171       0.00000000
Si       1.03930201       1.75141937      -1.19449082       0.00000000
Si       1.58514733      -1.79346386      -0.08749641       0.00000000
Si       2.11084193       0.31954464      -2.68919439       0.00000000
Si      -0.69357934      -2.40150440      -2.52380022       0.00000000
Si       1.25022493       2.54821214       2.20646162       0.00000000
Si       2.21506535      -2.20177271       2.06073153       0.00000000
Si       3.41016492      -0.97145416      -1.26290665       0.00000000
Si      -3.12132693      -2.13109040       0.40588531       0.00000000
