10
Lattice="16.290000149 0.0 0.0 0.0 16.290000149 0.0 0.0 0.0 29.1751946751" Properties=species:S:1:pos:R:3:initial_magmoms:R:1 pbc="T T T"
Si       1.26240985      -1.62660538       1.17004201       0.00000000
Si       1.30271131       1.29705868      -1.49455770       0.00000000
Si      -1.00067842       1.76122595       1.26871252       0.00000000
Si      -1.29746593      -1.67751164      -1.17552694       0.00000000
H        0.23421762      -2.73986400       1.37292631       0.00000000
H       -3.04961835      -1.03990474       0.36900786       0.00000000
H       -2.48718980      -1.15478182      -1.96416163       0.00000000
H       -0.30089259      -1.20686095       3.18543528       0.00000000
H       -1.85603375       0.49718709      -3.07643675       0.00000000
Si      -2.52600887       2.75776671      -0.23556052       0.00000000
