10
Lattice="16.290000149 0.0 0.0 0.0 16.290000149 0.0 0.0 0.0 29.1751946751" Properties=species:S:1:pos:R:3:initial_magmoms:R:1 pbc="T T T"
Si      -1.27666360      -1.21353985       1.52358702       0.00000000
Si      -1.45559296       1.34086249      -1.24840658       0.00000000
Si       1.84466333       0.91755055       1.11770171       0.00000000
Si       1.15108399      -1.48395385      -1.40609851       0.00000000
Si       3.42981066      -0.87591331       1.03020530       0.00000000
Si      -0.08149887       2.65803932      -2.61529363       0.00000000
Si      -2.68643279      -2.59670747       0.18943454       0.00000000
Si       2.53102619      -0.15244182      -2.75227116       0.00000000
Si       2.54663201      -2.76333789      -0.04323764       0.00000000
Si      -2.81373915      -0.04557942      -2.59854706       0.00000000
