10
Lattice="16.290000149 0.0 0.0 0.0 16.290000149 0.0 0.0 0.0 29.1751946751" Properties=species:S:1:pos:R:3:initial_magmoms:R:1 pbc="T T T"
Si      -1.66863359       1.68953366       0.24165814       0.00000000
Si       0.35969949      -0.22152771       2.35945634       0.00000000
Si       1.62342883       1.10861596      -1.40140130       0.00000000
Si      -1.08413209      -1.68419054      -1.39011050       0.00000000
H        1.89518188      -1.60702480       0.21332902       0.00000000
H        0.54915219       2.48912831       1.36796653       0.00000000
H       -1.08359452       0.07061715       2.79620901       0.00000000
Si      -2.42162255      -0.27403038      -2.76618773       0.00000000
Si       0.34593444       2.47782305      -2.80808331       0.00000000
Si      -3.53163945       0.84623293      -1.00730277       0.00000000
