10
Lattice="16.290000149 0.0 0.0 0.0 16.290000149 0.0 0.0 0.0 29.1751946751" Properties=species:S:1:pos:R:3:initial_magmoms:R:1 pbc="T T T"
Si       1.20286485      -1.27578231      -1.61639331       0.00000000
Si      -1.34281420       1.30352581      -1.48630112       0.00000000
Si      -1.44957886      -1.41486959       1.34103782       0.00000000
Si       1.30610273       1.70816942       1.14606000       0.00000000
H        2.85357129       0.26880129       0.49618254       0.00000000
H        0.17724155       2.69521310       1.38281670       0.00000000
H       -0.98906055       0.87190597       3.35724800       0.00000000
Si      -2.64096431      -2.56316327      -0.35412851       0.00000000
Si       3.43616686      -1.05117742       0.93579437       0.00000000
Si       2.58841896      -2.71826345      -0.45667932       0.00000000
