10
Lattice="16.290000149 0.0 0.0 0.0 16.290000149 0.0 0.0 0.0 29.1751946751" Properties=species:S:1:pos:R:3:initial_magmoms:R:1 pbc="T T T"
Si      -0.74873728       1.31813794      -1.79013159       0.00000000
Si       1.99425440      -0.88788809      -0.97529758       0.00000000
Si      -1.51552387      -1.85146277      -0.06934944       0.00000000
Si      -0.62745823       1.07080687       2.04719424       0.00000000
H        2.45477270       1.39888747       1.04091260       0.00000000
H        1.24387183      -0.77237570       2.76560423       0.00000000
Si      -2.49976568       2.28954323      -0.52448247       0.00000000
Si       0.80286895      -2.03618176      -2.67046392       0.00000000
Si      -0.65278918      -0.42489207      -3.59400471       0.00000000
Si       2.56648952      -2.62746299       0.54312542       0.00000000
