10
Lattice="16.290000149 0.0 0.0 0.0 16.290000149 0.0 0.0 0.0 29.1751946751" Properties=species:S:1:pos:R:3:initial_magmoms:R:1 pbc="T T T"
Si       1.33771852       1.34827444      -1.37178848       0.00000000
Si      -1.37912456       1.39610188       1.29823781       0.00000000
Si       1.34908894      -1.34892604       1.38844751       0.00000000
Si      -1.37839385      -1.36264222      -1.35612140       0.00000000
Si      -0.11119717      -2.73204480       2.60998374       0.00000000
Si      -2.68832243       0.06027300       2.66707960       0.00000000
Si       2.69084738      -2.67683798      -0.02115202       0.00000000
Si       2.67913487       2.69925140       0.01983913       0.00000000
Si      -0.06629053       2.65561211      -2.73809202       0.00000000
Si       2.69027723      -0.01060479      -2.73313224       0.00000000
