10
Lattice="16.290000149 0.0 0.0 0.0 16.290000149 0.0 0.0 0.0 29.1751946751" Properties=species:S:1:pos:R:3:initial_magmoms:R:1 pbc="T T T"
Si       1.38795688       1.27477396       1.37637015       0.00000000
Si      -1.63367525       1.18325674      -1.21269206       0.00000000
Si       1.25149555      -1.34224388      -1.48588858       0.00000000
Si      -1.33540860      -1.40681419       1.35227728       0.00000000
Si      -2.96728869      -0.79405606      -1.70020956       0.00000000
Si      -2.68205681      -2.61893534      -0.12985471       0.00000000
Si      -0.03194469       2.65623113       2.65915386       0.00000000
Si       2.60819192      -2.72923005      -0.08848428       0.00000000
Si       2.59022405      -0.12326643       2.81676702       0.00000000
Si      -2.76804573      -0.10018350       2.70347974       0.00000000
