10
Lattice="16.290000149 0.0 0.0 0.0 16.290000149 0.0 0.0 0.0 29.1751946751" Properties=species:S:1:pos:R:3:initial_magmoms:R:1 pbc="T T T"
Si      -1.61503948       0.17246223       1.67669844       0.00000000
Si       0.83425978       1.92903087      -1.01964388       0.00000000
Si       1.76858903      -1.15494472       1.03248096       0.00000000
Si      -1.56051685      -0.78095890      -1.59293645       0.00000000
H       -0.21015729       3.04459940      -1.00313072       0.00000000
Si      -2.04900509       2.46186700       1.37546455       0.00000000
Si       1.11246040       1.18951210      -3.22560952       0.00000000
Si       0.61828696      -2.79603192       2.21270511       0.00000000
Si      -2.47541213      -2.61485453      -0.42158156       0.00000000
Si      -0.41388003      -0.65358739      -3.65182994       0.00000000
