10
Lattice="16.290000149 0.0 0.0 0.0 16.290000149 0.0 0.0 0.0 29.1751946751" Properties=species:S:1:pos:R:3:initial_magmoms:R:1 pbc="T T T"
Si      -0.47227968       2.02782809      -1.06676182       0.00000000
Si       1.59472585       0.81342487       1.56031859       0.00000000
Si       1.29725416      -1.50043933      -1.32032344       0.00000000
Si      -1.86826754      -0.89679709       1.27912806       0.00000000
H       -2.78536197      -0.72870058      -1.24951524       0.00000000
H        1.06629454       1.18540702      -2.72385453       0.00000000
H       -1.06942222       1.93245014      -2.46711281       0.00000000
Si      -2.18732348       2.47023191       0.46301034       0.00000000
Si       2.22444839      -2.54523107       0.51327920       0.00000000
Si       3.29475027      -0.78506398       1.57729855       0.00000000
