10
Lattice="16.290000149 0.0 0.0 0.0 16.290000149 0.0 0.0 0.0 29.1751946751" Properties=species:S:1:pos:R:3:initial_magmoms:R:1 pbc="T T T"
Si       0.92719423      -1.04479174       1.83360263       0.00000000
Si      -0.77178763      -2.04561677      -0.87919449       0.00000000
Si      -1.29725416       1.50043933       1.32032344       0.00000000
Si       1.99440101       0.59611627      -1.16759129       0.00000000
H       -0.23095962       2.68584635      -1.40353109       0.00000000
Si      -0.15750801      -1.53546283      -3.06234513       0.00000000
Si       2.25939044      -2.59243949       0.67651441       0.00000000
Si      -1.01089225      -2.07278849       2.73669161       0.00000000
Si       1.99749611       0.71537536       2.89762198       0.00000000
Si       0.29747169       2.31386420       2.88064202       0.00000000
