10
Lattice="16.290000149 0.0 0.0 0.0 16.290000149 0.0 0.0 0.0 29.1751946751" Properties=species:S:1:pos:R:3:initial_magmoms:R:1 pbc="T T T"
Si       2.27013695      -0.47662911       0.12014345       0.00000000
Si      -0.27820062       0.73951877       2.20596564       0.00000000
Si      -0.57223513       1.73957491      -1.51842301       0.00000000
Si      -1.52634043      -1.84309949      -0.42622042       0.00000000
H       -1.32261769       1.85508730       2.22247880       0.00000000
Si       2.54418851      -1.29381697      -2.03453220       0.00000000
Si      -1.11246040      -1.18951210       3.22560952       0.00000000
Si      -2.67297725      -1.97047100       1.63267307       0.00000000
Si      -3.05167089      -0.84655873      -1.93049346       0.00000000
Si      -2.56648952       2.62746299      -0.54312542       0.00000000
