10
Lattice="16.290000149 0.0 0.0 0.0 16.290000149 0.0 0.0 0.0 29.1751946751" Properties=species:S:1:pos:R:3:initial_magmoms:R:1 pbc="T T T"
Si      -1.41177286      -1.29570661      -1.34480142       0.00000000
Si      -1.38209248       1.35604477       1.32425625       0.00000000
Si       1.32089095       1.40369302      -1.34200498       0.00000000
Si       1.37086867      -1.41165883       1.30420414       0.00000000
Si       2.62501949       2.58765023       0.21024812       0.00000000
Si       2.66310551       0.04794147      -2.68441258       0.00000000
Si      -0.10454922      -2.72214047      -2.64607637       0.00000000
Si      -2.69099399       0.20341323      -2.67790651       0.00000000
Si      -2.73479781      -0.04136031       2.64481601       0.00000000
Si      -0.04494411       2.68064984       2.72854881       0.00000000
