10
Lattice="16.290000149 0.0 0.0 0.0 16.290000149 0.0 0.0 0.0 29.1751946751" Properties=species:S:1:pos:R:3:initial_magmoms:R:1 pbc="T T T"
Si       1.46015628       1.17990100      -1.41448929       0.00000000
Si      -1.39628107      -1.32071176      -1.36439548       0.00000000
Si      -1.33043689       1.43998714       1.31332431       0.00000000
Si       1.38810349      -1.36132273       1.35505650       0.00000000
Si       0.14217912      -2.59206482      -2.56057847       0.00000000
Si       0.05857884       2.35147781      -2.87418263       0.00000000
H       -0.84141109       3.09379683      -1.89552990       0.00000000
Si      -2.67169034       0.02177973       2.67321806       0.00000000
Si       2.68039409       2.66942603      -0.01750512       0.00000000
Si      -2.61241103      -2.75579562       0.07766729       0.00000000
