10
Lattice="16.290000149 0.0 0.0 0.0 16.290000149 0.0 0.0 0.0 29.1751946751" Properties=species:S:1:pos:R:3:initial_magmoms:R:1 pbc="T T T"
Si       2.24598377      -0.50489226       0.27611404       0.00000000
Si      -1.57392352      -1.68634896      -0.44372554       0.00000000
Si      -0.73037845       0.63430003       2.17818794       0.00000000
Si      -0.07532496       1.46297233      -1.92880130       0.00000000
H        0.26492427      -1.10361656      -2.82232081       0.00000000
Si      -2.82796032      -0.58099915      -2.04748599       0.00000000
Si      -1.30235293       3.31600872      -1.26500727       0.00000000
Si       1.30934134      -2.21918509      -2.83883397       0.00000000
Si       3.17806500      -1.31836600      -1.71911917       0.00000000
H       -0.00557118       3.86369482      -0.34219586       0.00000000
