10
Lattice="16.290000149 0.0 0.0 0.0 16.290000149 0.0 0.0 0.0 29.1751946751" Properties=species:S:1:pos:R:3:initial_magmoms:R:1 pbc="T T T"
H        0.85522501       0.93445957       0.79864178       0.00000000
Si       1.42245910      -1.44956566      -1.12050253       0.00000000
Si      -1.82501759      -0.82200970       1.17541024       0.00000000
Si      -1.29932299       1.29099880      -1.42628774       0.00000000
H        1.64576243       0.19303650       2.47814104       0.00000000
H        2.27691848       1.84500542       1.36586591       0.00000000
Si      -2.37086291       2.72287352       0.06841583       0.00000000
Si       2.77516443      -0.05867658      -2.46221138       0.00000000
Si       0.06245586      -2.75740833      -2.51213014       0.00000000
Si       0.11533320       2.61487082      -2.66643774       0.00000000
