10
Lattice="16.290000149 0.0 0.0 0.0 16.290000149 0.0 0.0 0.0 29.1751946751" Properties=species:S:1:pos:R:3:initial_magmoms:R:1 pbc="T T T"
Si       1.32932754      -1.35005005       1.36758725       0.00000000
Si      -1.34109218      -1.36031275      -1.35749263       0.00000000
Si      -1.31041469       1.33796287       1.40919108       0.00000000
Si       1.35169371       1.36645408      -1.36335685       0.00000000
Si       2.64968093       0.07719831       2.69829705       0.00000000
Si      -2.65523907       2.70311375       0.03343477       0.00000000
Si      -2.67788217       0.01537776      -2.70999631       0.00000000
Si       2.70811316      -2.69933447       0.00933606       0.00000000
Si      -2.70187734      -2.71474481       0.00256742       0.00000000
Si       0.02403752      -2.71181261      -2.70693291       0.00000000
