10
Lattice="16.290000149 0.0 0.0 0.0 16.290000149 0.0 0.0 0.0 29.1751946751" Properties=species:S:1:pos:R:3:initial_magmoms:R:1 pbc="T T T"
Si      -0.27405156       0.81718786       2.15467565       0.00000000
Si       1.65468935      -1.64918333       0.10325101       0.00000000
Si      -1.76713922      -1.01344978      -1.15495843       0.00000000
Si       0.92157418       1.72999802      -1.28160795       0.00000000
Si      -0.42526837      -2.31876749      -2.57476928       0.00000000
Si      -2.54418851       1.29381697       2.03453220       0.00000000
Si       2.44610642       0.46073007      -2.49652141       0.00000000
Si       3.48179205      -0.35763066      -0.54049966       0.00000000
Si       1.00584235       2.80995987       2.26428686       0.00000000
Si       2.12569841      -2.07752888       2.31330119       0.00000000
