10
Lattice="16.290000149 0.0 0.0 0.0 16.290000149 0.0 0.0 0.0 29.1751946751" Properties=species:S:1:pos:R:3:initial_magmoms:R:1 pbc="T T T"
Si       1.29349117       1.43698978       1.31527613       0.00000000
Si      -1.35405739       1.36609570      -1.33879133       0.00000000
Si      -1.30859200      -1.34894396       1.42109456       0.00000000
Si       1.42224733      -1.36369130      -1.30270162       0.00000000
Si       2.53496837       0.04699665       2.68741471       0.00000000
Si      -2.65000835      -2.69992091       0.02946695       0.00000000
Si      -2.70780527      -0.00535941      -2.68128792       0.00000000
Si       0.06361245      -2.70746318      -2.68198812       0.00000000
Si       0.02122587       2.69912270      -2.70314014       0.00000000
Si       0.11850975      -2.71305065       2.71615227       0.00000000
