10
Lattice="16.290000149 0.0 0.0 0.0 16.290000149 0.0 0.0 0.0 29.1751946751" Properties=species:S:1:pos:R:3:initial_magmoms:R:1 pbc="T T T"
Si      -1.36632376       1.35635428      -1.32901764       0.00000000
Si       1.34930071       1.36226755       1.34742719       0.00000000
Si      -1.37544616      -1.33012738       1.35673408       0.00000000
Si       1.37391490      -1.36357075      -1.33356897       0.00000000
Si       2.67279806      -0.07718202       2.62124537       0.00000000
Si       0.00141723       2.70141959      -2.67148505       0.00000000
Si       0.00871515      -2.71943633      -2.68009173       0.00000000
Si      -2.70733286      -0.00627165      -2.69383325       0.00000000
Si      -2.68394042       2.71927343       0.06120956       0.00000000
Si      -0.06186942      -2.75356389       2.65573045       0.00000000
