10
Lattice="16.290000149 0.0 0.0 0.0 16.290000149 0.0 0.0 0.0 29.1751946751" Properties=species:S:1:pos:R:3:initial_magmoms:R:1 pbc="T T T"
Si       1.34626453       1.34881201      -1.36347355       0.00000000
Si      -1.34573320       1.36290286       1.35054894       0.00000000
Si       1.34299648      -1.35503479       1.37202188       0.00000000
Si      -1.37137366      -1.34612416      -1.35577130       0.00000000
Si      -2.68055210      -0.08329077       2.60969199       0.00000000
Si       2.67018352      -2.70462872      -0.02325263       0.00000000
Si       2.66460582       2.71055828       0.02605345       0.00000000
Si      -0.02164941       2.71109585      -2.69908479       0.00000000
Si       2.69293088       0.02296890       2.72350442       0.00000000
Si      -0.02682963      -2.67695201      -2.74133047       0.00000000
