10
Lattice="16.290000149 0.0 0.0 0.0 16.290000149 0.0 0.0 0.0 29.1751946751" Properties=species:S:1:pos:R:3:initial_magmoms:R:1 pbc="T T T"
Si       1.27891488      -1.37369336       1.38644901       0.00000000
Si      -1.34664821      -1.21212115      -1.48213198       0.00000000
Si      -1.43263713       1.30663069       1.35120246       0.00000000
Si       1.33540860       1.40681419      -1.35227728       0.00000000
Si      -1.63188009       0.61275813      -3.05248684       0.00000000
Si      -0.29826664       2.59007093      -2.56496933       0.00000000
Si       2.60922145      -2.68740042      -0.03242239       0.00000000
Si      -2.82461761      -2.52140532      -0.11136464       0.00000000
Si      -0.07021479       2.70185291       2.66862296       0.00000000
Si       2.58027412      -0.04678325       2.81137719       0.00000000
