10
Lattice="16.290000149 0.0 0.0 0.0 16.290000149 0.0 0.0 0.0 29.1751946751" Properties=species:S:1:pos:R:3:initial_magmoms:R:1 pbc="T T T"
Si      -1.03716802       1.48629961       1.46713301       0.00000000
Si       0.91489528       1.83389564      -1.17135489       0.00000000
Si      -1.33610581      -1.45505539      -1.29391988       0.00000000
Si       1.50162850      -1.31077486       1.29429916       0.00000000
H       -1.92684638       2.32868810       0.57495556       0.00000000
H        2.76131793      -1.00681975      -1.31352561       0.00000000
Si       2.31684527      -2.29311074      -0.64906056       0.00000000
Si       0.86037265       2.78731677       2.09828000       0.00000000
Si       0.44175222      -3.00530955      -1.92436667       0.00000000
Si       2.47541213       2.61485453       0.42158156       0.00000000
