10
Lattice="16.290000149 0.0 0.0 0.0 16.290000149 0.0 0.0 0.0 29.1751946751" Properties=species:S:1:pos:R:3:initial_magmoms:R:1 pbc="T T T"
Si       1.34221456      -1.35575155      -1.34240760       0.00000000
Si       1.30412854       1.18395721       1.55225310       0.00000000
Si      -1.32089095      -1.40369302       1.34200498       0.00000000
Si      -1.21502224       1.41649696      -1.44784675       0.00000000
Si      -0.16040763      -2.64145610      -2.62812925       0.00000000
Si       0.40154850       2.90310446      -2.38708379       0.00000000
Si      -2.70298343      -0.04764825       2.66626123       0.00000000
Si      -2.69759144       2.71444817      -0.10931800       0.00000000
Si      -2.73266382      -2.69939963      -0.00279644       0.00000000
Si      -0.01699047       2.67236806       2.75977065       0.00000000
