10
Lattice="16.290000149 0.0 0.0 0.0 16.290000149 0.0 0.0 0.0 29.1751946751" Properties=species:S:1:pos:R:3:initial_magmoms:R:1 pbc="T T T"
Si       1.81708436      -0.90354115       1.14045836       0.00000000
Si      -0.83095291       1.77402989       1.32084859       0.00000000
Si       1.12845718       1.43775541      -1.54596439       0.00000000
Si      -1.01978659      -2.15278868      -0.39573234       0.00000000
H       -1.92006974      -0.62167528      -1.94055890       0.00000000
Si       2.61500114       2.44804493      -0.07142088       0.00000000
Si      -0.05085738      -2.56447608      -2.54883253       0.00000000
Si      -1.95388778       0.60738895       2.99722610       0.00000000
Si       1.02656323       3.24659703       1.47194692       0.00000000
H        3.20406384      -0.63508195      -1.76428237       0.00000000
