10
Lattice="16.290000149 0.0 0.0 0.0 16.290000149 0.0 0.0 0.0 29.1751946751" Properties=species:S:1:pos:R:3:initial_magmoms:R:1 pbc="T T T"
Si       1.34179102       1.32893821      -1.37598971       0.00000000
Si      -1.42886107       1.37691226       1.23810774       0.00000000
Si       1.33812577      -1.35081568       1.38284588       0.00000000
Si      -1.38451969      -1.35092971      -1.33937484       0.00000000
Si      -0.16000038      -2.70666497       2.55233356       0.00000000
Si       2.70179426       2.63678087       0.01563790       0.00000000
Si      -0.01811448      -2.74116720      -2.65234612       0.00000000
Si      -2.80171713       0.05711274       2.59854706       0.00000000
Si       2.69319314      -0.03057633      -2.71915732       0.00000000
Si      -0.01343925       2.66437613      -2.75302972       0.00000000
