10
Lattice="16.290000149 0.0 0.0 0.0 16.290000149 0.0 0.0 0.0 29.1751946751" Properties=species:S:1:pos:R:3:initial_magmoms:R:1 pbc="T T T"
Si      -1.37546245      -1.33783255      -1.34115452       0.00000000
Si      -1.37060803       1.36508572       1.32038179       0.00000000
Si       1.34723188      -1.35891181       1.36256912       0.00000000
Si       1.36511830       1.35405739      -1.34990708       0.00000000
Si       0.00863370       2.70441695       2.65176262       0.00000000
Si      -0.00105885      -2.68296302      -2.67656153       0.00000000
Si       2.71526609       0.00946449       2.68563502       0.00000000
Si      -2.72396495       0.01501938       2.68365111       0.00000000
Si       0.00918756       2.72508896      -2.68753141       0.00000000
Si      -2.72142371      -2.70141959       0.01983913       0.00000000
