10
Lattice="16.290000149 0.0 0.0 0.0 16.290000149 0.0 0.0 0.0 29.1751946751" Properties=species:S:1:pos:R:3:initial_magmoms:R:1 pbc="T T T"
Si       1.38479662      -1.31492881      -1.35795944       0.00000000
Si       1.37202526       1.36055710       1.32735466       0.00000000
Si      -1.35593074       1.37103157      -1.33762433       0.00000000
Si      -1.36511830      -1.35405739       1.34990708       0.00000000
Si       0.00599472      -2.67853214      -2.66238239       0.00000000
Si      -0.00708615       2.70700706       2.64884510       0.00000000
Si       0.02375082       2.68822469      -2.70144798       0.00000000
Si       2.71331129      -2.68192046       0.01797192       0.00000000
Si      -2.73572634       0.01102833       2.67028887       0.00000000
Si      -0.01788642      -2.71296920       2.71247620       0.00000000
