10
Lattice="16.290000149 0.0 0.0 0.0 16.290000149 0.0 0.0 0.0 29.1751946751" Properties=species:S:1:pos:R:3:initial_magmoms:R:1 pbc="T T T"
Si       1.53108082       0.72340633       1.61192951       0.00000000
Si      -1.22155453      -1.32056515       1.49324481       0.00000000
Si       0.62745823      -1.07080687      -2.04719424       0.00000000
Si      -1.48654396       1.86799061      -0.35086089       0.00000000
H        1.87133006      -1.84318257       0.71840999       0.00000000
H        3.08223093       0.32808060      -1.00628164       0.00000000
Si      -1.87230746       1.21873636      -2.57167671       0.00000000
Si       0.30405285       2.57644271       2.27572354       0.00000000
Si       3.15317388       1.40297626       0.05385741       0.00000000
Si      -2.55375074       0.22708260       2.65033303       0.00000000
