10
Lattice="16.290000149 0.0 0.0 0.0 16.290000149 0.0 0.0 0.0 29.1751946751" Properties=species:S:1:pos:R:3:initial_magmoms:R:1 pbc="T T T"
Si      -1.32457249      -1.33601361      -1.33751929       0.00000000
Si       1.31682953      -1.43572568       1.27498518       0.00000000
Si      -1.44321256       1.33134262       1.28201640       0.00000000
Si       1.29902974       1.29123664      -1.47099873       0.00000000
Si       2.63085620      -0.05179406       2.63816698       0.00000000
Si      -0.07446159       2.68004060       2.61984496       0.00000000
Si      -2.74128122       0.00761232      -2.59133496       0.00000000
Si       2.66145208       2.68645886      -0.15357822       0.00000000
Si      -0.15117120       2.67572375      -2.69702793       0.00000000
Si      -0.08164548      -2.77214100       2.60747467       0.00000000
