10
Lattice="16.290000149 0.0 0.0 0.0 16.290000149 0.0 0.0 0.0 29.1751946751" Properties=species:S:1:pos:R:3:initial_magmoms:R:1 pbc="T T T"
Si       1.34576741       1.35234694      -1.36449468       0.00000000
Si      -1.33295016       1.34646625       1.38763061       0.00000000
Si       1.34957927      -1.35532801       1.36475726       0.00000000
Si      -1.36594746      -1.32760243      -1.37747764       0.00000000
Si       2.67705138       2.69783579       0.04959783       0.00000000
Si      -2.70604433      -2.67929777       0.00977369       0.00000000
Si      -2.70086411       2.70875009       0.05201937       0.00000000
Si       2.69058837       0.00729792       2.72957286       0.00000000
Si       2.69795145      -0.01642032      -2.72227906       0.00000000
Si      -0.01039139      -2.71451675      -2.70620353       0.00000000
