10
Lattice="16.290000149 0.0 0.0 0.0 16.290000149 0.0 0.0 0.0 29.1751946751" Properties=species:S:1:pos:R:3:initial_magmoms:R:1 pbc="T T T"
H        1.19676115       0.36522180       0.89048529       0.00000000
Si       0.86538997       1.48796119      -1.62578772       0.00000000
Si      -0.77649870      -2.11631537       1.17683983       0.00000000
Si       0.53923158      -2.38511666      -0.72806698       0.00000000
Si      -2.19149372       1.42004818       1.03910373       0.00000000
H        2.60063336      -1.66441448       1.35267873       0.00000000
Si      -3.41275503      -0.17114274      -0.36944549       0.00000000
Si      -0.25723539      -1.20839221       3.26811778       0.00000000
H       -1.87727265      -1.55663983      -2.51557281       0.00000000
Si       1.27931887       3.30470346      -0.14631360       0.00000000
