10
Lattice="16.290000149 0.0 0.0 0.0 16.290000149 0.0 0.0 0.0 29.1751946751" Properties=species:S:1:pos:R:3:initial_magmoms:R:1 pbc="T T T"
Si      -1.38844558      -1.35957970       1.31346726       0.00000000
Si      -1.37008675       1.34193763      -1.35294130       0.00000000
Si       1.35223291      -1.37037997      -1.35054894       0.00000000
Si       1.37626066       1.36596538       1.33704082       0.00000000
Si       2.77418703      -0.08562024       2.52791392       0.00000000
Si       0.00612504       2.69653259      -2.68639358       0.00000000
Si      -0.06494823      -2.79902928       2.58728544       0.00000000
Si      -2.67747329       0.01145187       2.72426298       0.00000000
Si      -2.69107544       2.71184519       0.02905849       0.00000000
Si       2.72624555      -0.02849121      -2.69386243       0.00000000
