10
Lattice="16.290000149 0.0 0.0 0.0 16.290000149 0.0 0.0 0.0 29.1751946751" Properties=species:S:1:pos:R:3:initial_magmoms:R:1 pbc="T T T"
Si       1.39641139       1.41356313       1.25823862       0.00000000
Si      -1.26156277       1.39827660      -1.42617104       0.00000000
Si       1.43237971      -1.28109448      -1.40992046       0.00000000
Si      -1.28979334      -1.58654827       1.28093692       0.00000000
Si      -2.52239249      -2.71920827      -0.34625121       0.00000000
Si       0.28944072      -2.66761784       2.60727045       0.00000000
Si      -2.58807377       2.79287166      -0.06205564       0.00000000
Si       2.87188130       0.13362687       2.53637472       0.00000000
Si      -2.56686419       0.08553879      -2.87384420       0.00000000
Si       2.77255803       2.71173116      -0.17044149       0.00000000
