10
Lattice="16.290000149 0.0 0.0 0.0 16.290000149 0.0 0.0 0.0 29.1751946751" Properties=species:S:1:pos:R:3:initial_magmoms:R:1 pbc="T T T"
Si       1.32349735      -1.43944957       1.27381817       0.00000000
Si      -1.34930071      -1.36226755      -1.34742719       0.00000000
Si       1.38844558       1.35957970      -1.31346726       0.00000000
Si      -1.28902771       1.37103157       1.41079571       0.00000000
Si       2.74797642      -0.04991256       2.45459665       0.00000000
Si       0.01835883       2.70151733      -2.66640857       0.00000000
Si      -2.66369195       2.72008793       0.06570254       0.00000000
Si      -2.71562447      -0.00591327      -2.67644483       0.00000000
Si      -0.05644485      -2.77096161       2.61999083       0.00000000
Si       2.74067850      -0.01080027      -2.66401620       0.00000000
