10
Lattice="16.290000149 0.0 0.0 0.0 16.290000149 0.0 0.0 0.0 29.1751946751" Properties=species:S:1:pos:R:3:initial_magmoms:R:1 pbc="T T T"
Si      -1.23732325       1.36889758       1.41558045       0.00000000
Si       1.32468652      -1.36945144       1.33911226       0.00000000
Si       1.34584803       1.41139819      -1.30967449       0.00000000
Si      -1.38932524      -1.35624025      -1.33371485       0.00000000
H       -1.88757119       0.54744175       2.49436244       0.00000000
Si       2.61304471       0.04199562       2.65643065       0.00000000
Si      -2.81655732       2.44996715       0.08924692       0.00000000
Si      -0.09438426       2.75542095      -2.60161046       0.00000000
Si      -0.00544086      -2.69922044      -2.66950114       0.00000000
Si       2.68571441       0.05075964      -2.68379698       0.00000000
