10
Lattice="16.290000149 0.0 0.0 0.0 16.290000149 0.0 0.0 0.0 29.1751946751" Properties=species:S:1:pos:R:3:initial_magmoms:R:1 pbc="T T T"
Si      -1.33760449      -1.28195785      -1.43436927       0.00000000
Si       1.34674318       1.38720754      -1.35203687       0.00000000
Si      -1.11001690       1.12026331       1.75888496       0.00000000
Si       1.33749046      -1.41016015       1.37607723       0.00000000
Si       0.75298897       1.96356404       3.00784587       0.00000000
Si       2.42162255       0.27403038       2.76618773       0.00000000
Si      -2.77226481      -0.39638457       2.50273572       0.00000000
Si       0.05075964      -2.63717183      -2.75011220       0.00000000
Si       2.68666085       0.05323572      -2.76487485       0.00000000
Si      -0.05300766      -3.23705109       2.12290387       0.00000000
