10
Lattice="16.290000149 0.0 0.0 0.0 16.290000149 0.0 0.0 0.0 29.1751946751" Properties=species:S:1:pos:R:3:initial_magmoms:R:1 pbc="T T T"
Si       1.35239581      -1.35304741       1.30354770       0.00000000
Si       1.36756180       1.25265214      -1.43944575       0.00000000
Si      -1.32035338      -1.42724836      -1.33070980       0.00000000
Si      -1.11522970       1.48476835       1.46777487       0.00000000
Si      -2.57138304       2.64155384       0.03110076       0.00000000
H       -3.06671470      -0.76064527       1.98012046       0.00000000
Si       2.72228708       2.59752197      -0.12775818       0.00000000
Si       2.74497906      -0.00166158       2.59554202       0.00000000
Si       0.00099369      -2.66755268       2.67956658       0.00000000
Si      -2.64968093      -0.07719831      -2.69829705       0.00000000
