10
Lattice="16.290000149 0.0 0.0 0.0 16.290000149 0.0 0.0 0.0 29.1751946751" Properties=species:S:1:pos:R:3:initial_magmoms:R:1 pbc="T T T"
Si       2.06799923      -0.72727031       0.84905652       0.00000000
Si       0.76347973       0.58712419      -2.15342112       0.00000000
Si      -1.27989391      -1.99277201      -0.10961121       0.00000000
Si      -0.59774527       1.51321069       1.76442825       0.00000000
H        0.68240440       1.55038447       2.58705204       0.00000000
H        0.18088416       1.90710290      -2.59303295       0.00000000
Si      -0.07894134       3.50503788       0.08110704       0.00000000
Si       1.29127573      -2.22773897       2.55951065       0.00000000
Si       3.12552975      -1.39660687      -1.21791850       0.00000000
Si      -1.95950783       0.12419496       3.09592578       0.00000000
