10
Lattice="10.86 0.0 0.0 0.0 10.86 0.0 0.0 0.0 10.86" Properties=species:S:1:pos:R:3:initial_magmoms:R:1 pbc="T T T"
Si       1.29570660       1.39401132       1.37611404       0.00000000
Si      -1.41929340      -1.32098868       1.37611404       0.00000000
Si      -1.41929340       1.39401132      -1.33888596       0.00000000
Si       2.58321390      -2.46032214      -0.21762354       0.00000000
Si       2.58362658      -0.00878574      -2.66220954       0.00000000
Si       2.65320660       0.03651132       2.73361404       0.00000000
Si       2.65320660       2.75151132       0.01861404       0.00000000
Si      -0.06179340      -2.67848868       2.73361404       0.00000000
Si      -2.79698214       0.02061228      -2.64937302       0.00000000
Si      -0.06179340       2.75151132      -2.69638596       0.00000000
