10
Lattice="10.86 0.0 0.0 0.0 10.86 0.0 0.0 0.0 10.86" Properties=species:S:1:pos:R:3:initial_magmoms:R:1 pbc="T T T"
Si      -1.90381230      -1.17223926       0.40859664       0.00000000
Si      -1.11523512       1.45531602      -1.54192452       0.00000000
Si       1.59976488       1.45531602       1.17307548       0.00000000
Si       1.59976488      -1.25968398      -1.54192452       0.00000000
Si      -2.51129898       0.05185650       2.50199196       0.00000000
Si      -2.47273512       2.81281602      -0.18442452       0.00000000
Si       0.24226488       2.81281602       2.53057548       0.00000000
Si      -2.43095670       0.14520906      -2.90639664       0.00000000
Si       0.33296760      -2.75062080       2.60471670       0.00000000
Si       2.95726488       0.09781602       2.53057548       0.00000000
