10
Lattice="10.86 0.0 0.0 0.0 10.86 0.0 0.0 0.0 10.86" Properties=species:S:1:pos:R:3:initial_magmoms:R:1 pbc="T T T"
Si       1.28412984       1.23741012       1.26561354       0.00000000
Si      -1.43087016       1.23741012      -1.44938646       0.00000000
Si      -1.43087016      -1.47758988       1.26561354       0.00000000
Si       2.56926966       2.56095090      -0.12460764       0.00000000
Si      -0.00342090      -2.70625770      -2.46001806       0.00000000
Si      -0.07337016       2.59491012       2.62311354       0.00000000
Si       2.64162984      -0.12008988       2.62311354       0.00000000
Si      -2.78837016       2.59491012      -0.09188646       0.00000000
Si      -2.78837016      -0.12008988       2.62311354       0.00000000
Si      -0.16305204       2.48622324      -2.92901802       0.00000000
