10
Lattice="16.28999089631971 0.0 0.0 0.0 16.28999089631971 0.0 0.0 0.0 34.56954931742767" Properties=species:S:1:pos:R:3:initial_magmoms:R:1 pbc="T T T"
Si       1.34089506       1.35338949       1.37403664       0.00000000
Si      -1.35845568       1.35562122      -1.35975941       0.00000000
Si       1.35625653      -1.35740335      -1.36027796       0.00000000
Si      -1.36190916      -1.34711295       1.37735532       0.00000000
Si       2.71169856       2.71629234       0.00203960       0.00000000
Si       2.71321353      -2.71518092      -0.00003457       0.00000000
Si       2.71399545      -0.00114030      -2.71706439       0.00000000
Si      -0.00107514       2.71443528      -2.71671869       0.00000000
Si      -2.71829601      -2.71357479       0.00044940       0.00000000
Si      -0.00070047      -2.71586781      -2.71737551       0.00000000
