10
Lattice="16.28999089631971 0.0 0.0 0.0 16.28999089631971 0.0 0.0 0.0 34.56954931742767" Properties=species:S:1:pos:R:3:initial_magmoms:R:1 pbc="T T T"
Si       1.08621720      -2.02107491      -0.71897789       0.00000000
Si      -0.26142192      -0.40594354      -2.36196578       0.00000000
Si       1.72142946       1.81291410      -0.20956073       0.00000000
Si      -1.48745619      -0.56196753       2.12506052       0.00000000
Si       0.91997775       3.10122504       1.68343428       0.00000000
Si      -0.04033404      -3.81160655       0.38894222       0.00000000
Si      -0.99056232      -2.86849700       2.36939823       0.00000000
Si      -3.21126562       2.19009276       0.31783261       0.00000000
Si      -1.43237970       3.38007726       1.51473479       0.00000000
Si       0.98064171       1.09384092      -3.71318651       0.00000000
