10
Lattice="16.28999089631971 0.0 0.0 0.0 16.28999089631971 0.0 0.0 0.0 34.56954931742767" Properties=species:S:1:pos:R:3:initial_magmoms:R:1 pbc="T T T"
Si       0.14535567      -1.19307960       2.09584924       0.00000000
Si      -0.59543208      -1.91215278      -1.40777654       0.00000000
Si       1.94683419       0.60491286      -1.36179902       0.00000000
Si      -1.76365314       1.81115478       0.01839101       0.00000000
Si       2.58727554      -1.50899157       1.58097008       0.00000000
Si      -1.91023056      -0.61416558      -2.84967325       0.00000000
Si       0.82673379       2.10712779      -2.83442807       0.00000000
Si      -3.33503541       0.67126203      -1.36200643       0.00000000
Si      -0.53414910       3.46467123      -1.33182720       0.00000000
Si       0.35064225       2.04551901       3.14441339       0.00000000
