10
Lattice="16.28999089631971 0.0 0.0 0.0 16.28999089631971 0.0 0.0 0.0 34.56954931742767" Properties=species:S:1:pos:R:3:initial_magmoms:R:1 pbc="T T T"
Si      -0.45970380       1.99109412      -1.15617922       0.00000000
Si      -1.87484868      -1.43645220       0.00093338       0.00000000
Si       1.50361587      -1.56989988      -1.07379994       0.00000000
Si       1.08787878       1.89871353       1.83699231       0.00000000
Si      -2.51441037      -0.06309117       1.83412303       0.00000000
Si      -0.09482409      -3.12430797       0.01147710       0.00000000
Si      -0.85719609       1.16624997       3.25298746       0.00000000
Si       1.33164234       3.40141716      -0.79416670       0.00000000
Si      -0.17845695       1.64292795      -3.41982915       0.00000000
Si       3.18142071       0.09891288       2.13792040       0.00000000
