10
Lattice="16.28999089631971 0.0 0.0 0.0 16.28999089631971 0.0 0.0 0.0 34.56954931742767" Properties=species:S:1:pos:R:3:initial_magmoms:R:1 pbc="T T T"
Si       1.09403640       2.00854071       0.62104230       0.00000000
Si       1.44161613      -1.53383382       1.11085852       0.00000000
Si      -2.27155905      -0.32171121       0.70231536       0.00000000
Si      -0.17221788       0.01207089      -2.44227089       0.00000000
Si       0.29004345       3.18901185      -1.19223528       0.00000000
Si       1.63717758      -1.41763725      -2.88500335       0.00000000
Si      -2.51730999      -2.62519866       0.01462293       0.00000000
Si      -3.48207709       1.41271767      -0.57233378       0.00000000
Si      -0.04240287       3.08294766       2.34433530       0.00000000
Si       1.02467358      -3.73291866       0.29225113       0.00000000
