10
Lattice="16.28999089631971 0.0 0.0 0.0 16.28999089631971 0.0 0.0 0.0 34.56954931742767" Properties=species:S:1:pos:R:3:initial_magmoms:R:1 pbc="T T T"
Si       0.12961953       2.14935147      -0.92850404       0.00000000
Si       1.80939546      -1.42970814      -0.44273247       0.00000000
Si      -1.58503329      -1.26130212      -1.28318782       0.00000000
Si       0.17221788      -0.01207089       2.44227089       0.00000000
Si       0.46226133       3.17694096       1.25003560       0.00000000
Si      -1.54970028      -3.10114359       0.23299889       0.00000000
Si       0.80265717      -3.37999581       0.40169839       0.00000000
Si       2.46495393       2.55495618      -0.77702019       0.00000000
Si      -2.09934117      -0.33378210       3.14458624       0.00000000
Si       1.26625428       1.99646982       3.06331319       0.00000000
