10
Lattice="16.28999089631971 0.0 0.0 0.0 16.28999089631971 0.0 0.0 0.0 34.56954931742767" Properties=species:S:1:pos:R:3:initial_magmoms:R:1 pbc="T T T"
Si       1.21606479      -1.93605021      -0.49472510       0.00000000
Si       1.65309291       1.18236078       1.28903008       0.00000000
Si      -0.29851425       1.55416374      -1.87615963       0.00000000
Si      -2.47226814      -0.17348850       0.29401418       0.00000000
Si      -0.57528135      -3.34637325      -0.85673762       0.00000000
Si       0.33185988       2.77711920       2.37254407       0.00000000
Si      -2.82095559      -2.42393571      -0.89766799       0.00000000
Si       1.81612323       2.58659136      -2.18811542       0.00000000
Si       3.11295384       2.25802206      -0.17170705       0.00000000
Si      -2.84012892       0.58181364       2.53652278       0.00000000
