10
Lattice="16.28999089631971 0.0 0.0 0.0 16.28999089631971 0.0 0.0 0.0 34.56954931742767" Properties=species:S:1:pos:R:3:initial_magmoms:R:1 pbc="T T T"
Si      -1.29494097      -1.46776158       1.43028133       0.00000000
Si       2.24567424      -0.92243754       0.04093037       0.00000000
Si      -0.55723203       0.03220533      -2.36307200       0.00000000
Si       0.34868745       2.25044721       1.19168217       0.00000000
Si       2.52692109      -1.27060371      -2.22271955       0.00000000
Si       1.56976956       0.59381937      -3.26582172       0.00000000
Si       2.82095559       2.42393571       0.89766799       0.00000000
Si      -3.04368876      -2.31539544      -0.21982789       0.00000000
Si      -2.29796514       1.59259185      -2.62147953       0.00000000
Si      -2.29835610      -0.14626791       3.19243052       0.00000000
