10
Lattice="16.28999089631971 0.0 0.0 0.0 16.28999089631971 0.0 0.0 0.0 34.56954931742767" Properties=species:S:1:pos:R:3:initial_magmoms:R:1 pbc="T T T"
Si      -1.34529336       1.27576764       1.41897708       0.00000000
Si       1.35961227       1.29331197      -1.41183298       0.00000000
Si      -1.81237653      -0.90199359      -1.24785426       0.00000000
Si       1.36449927      -1.45898127       1.39318473       0.00000000
Si       2.68084530      -0.30144645      -2.49534697       0.00000000
Si      -2.68019370       2.62528011      -0.02025777       0.00000000
Si      -2.62630638      -2.74051557      -0.02391523       0.00000000
Si       0.01528002       2.61663012       2.78468592       0.00000000
Si       2.72533329       2.72372058       0.03862804       0.00000000
Si      -2.69899236      -0.09824499       2.77559412       0.00000000
