10
Lattice="16.28999089631971 0.0 0.0 0.0 16.28999089631971 0.0 0.0 0.0 34.56954931742767" Properties=species:S:1:pos:R:3:initial_magmoms:R:1 pbc="T T T"
Si       1.91550852       1.13598315       0.57935140       0.00000000
Si      -1.21409370      -1.50746031       1.32864680       0.00000000
Si       0.78859890      -2.12944509      -0.69840900       0.00000000
Si      -1.83400965       1.31276223      -0.81418248       0.00000000
Si      -1.54673550      -2.53504980      -0.84989284       0.00000000
Si       1.87693380       2.84477157      -1.02370864       0.00000000
Si      -0.85799430       2.08124298       2.77023238       0.00000000
Si       1.61318241       1.79488107       2.77109662       0.00000000
Si      -0.70745841       3.10329387      -1.92210259       0.00000000
Si      -2.78423793       2.25587178       1.16627354       0.00000000
