10
Lattice="16.28999089631971 0.0 0.0 0.0 16.28999089631971 0.0 0.0 0.0 34.56954931742767" Properties=species:S:1:pos:R:3:initial_magmoms:R:1 pbc="T T T"
Si       1.35695700      -1.35742129      -1.35740868       0.00000000
Si      -1.35778779       1.35749195      -1.35709756       0.00000000
Si       1.35695700       1.35846447       1.35709756       0.00000000
Si      -1.35728280      -1.35786112       1.35754696       0.00000000
Si      -0.00223173      -2.71413394      -2.71388399       0.00000000
Si      -2.71464705      -0.00132224      -2.71395312       0.00000000
Si       2.71469592       2.71472751       0.00031113       0.00000000
Si       2.71476108      -2.71501360       0.00044940       0.00000000
Si       2.71497285       0.00025247      -2.71488650       0.00000000
Si      -2.71523349      -2.71486699       0.00051854       0.00000000
