10
Lattice="16.28999089631971 0.0 0.0 0.0 16.28999089631971 0.0 0.0 0.0 34.56954931742767" Properties=species:S:1:pos:R:3:initial_magmoms:R:1 pbc="T T T"
Si      -1.35773892      -1.35626305       1.35678643       0.00000000
Si       1.35775521       1.35651717       1.35664815       0.00000000
Si       1.35715248      -1.35654323      -1.35758153       0.00000000
Si      -1.35723393       1.35809730      -1.35716670       0.00000000
Si       0.00004887       2.71500543      -2.71426425       0.00000000
Si      -2.71469592      -2.71472751      -0.00031113       0.00000000
Si       2.71485882      -2.71471248       0.00017285       0.00000000
Si       2.71529865       0.00125433      -2.71436796       0.00000000
Si       0.00027693      -2.71447505      -2.71519763       0.00000000
Si      -2.71510317       0.00110772      -2.71467909       0.00000000
