10
Lattice="16.28999089631971 0.0 0.0 0.0 16.28999089631971 0.0 0.0 0.0 34.56954931742767" Properties=species:S:1:pos:R:3:initial_magmoms:R:1 pbc="T T T"
Si       1.35205371       1.35866908      -1.37856526       0.00000000
Si      -1.36182771      -1.35701683      -1.37828870       0.00000000
Si      -1.35208629       1.41475555       1.37296499       0.00000000
Si       1.41319008      -1.27496748       1.48559264       0.00000000
Si      -0.22999851      -2.32509355       3.00302386       0.00000000
Si       2.70629028       2.71934020       0.00010371       0.00000000
Si       2.52929943       0.32848948       2.86664691       0.00000000
Si       2.71217097      -2.71727530       0.00871153       0.00000000
Si      -2.71120986      -2.72108716      -0.00314583       0.00000000
Si      -2.73414618       2.71155358      -0.00421749       0.00000000
