10
Lattice="16.28999089631971 0.0 0.0 0.0 16.28999089631971 0.0 0.0 0.0 34.56954931742767" Properties=species:S:1:pos:R:3:initial_magmoms:R:1 pbc="T T T"
Si      -1.10268639      -1.34176089       1.60354401       0.00000000
Si       1.32326928      -1.39496403      -1.41807828       0.00000000
Si      -1.40247126       1.33717426      -1.41583125       0.00000000
Si       1.15300620       1.66681381       1.29366240       0.00000000
Si      -2.65307085      -2.69037741      -0.02489009       0.00000000
Si       2.68239285       2.74087867      -0.04196746       0.00000000
Si       2.78487324      -2.64264771       0.04863938       0.00000000
Si       2.67265143      -0.03089370      -2.79322115       0.00000000
Si      -0.04056210       2.68428721      -2.79318658       0.00000000
Si      -0.04079016      -2.75131830      -2.79560645       0.00000000
