10
Lattice="16.28999089631971 0.0 0.0 0.0 16.28999089631971 0.0 0.0 0.0 34.56954931742767" Properties=species:S:1:pos:R:3:initial_magmoms:R:1 pbc="T T T"
Si      -0.08889453      -2.39146064       0.09399466       0.00000000
Si      -0.05629824       1.40326947       1.95940315       0.00000000
Si      -1.76389749       0.71278524      -1.48289622       0.00000000
Si       1.89462474       1.06228719      -1.07715319       0.00000000
Si      -1.29599982       3.01754331      -1.28439775       0.00000000
Si      -1.54209285       3.00947976       1.07252087       0.00000000
Si       0.92872548      -2.73827474       2.22863095       0.00000000
Si       0.94314213       3.08501649      -1.87042108       0.00000000
Si       0.66495780      -1.60931842      -3.37782712       0.00000000
Si      -1.34675946      -0.38722959      -3.55603325       0.00000000
