10
Lattice="16.28999089631971 0.0 0.0 0.0 16.28999089631971 0.0 0.0 0.0 34.56954931742767" Properties=species:S:1:pos:R:3:initial_magmoms:R:1 pbc="T T T"
Si      -1.48579461       1.60621029      -0.88688228       0.00000000
Si       0.05629824      -1.40326947      -1.95940315       0.00000000
Si       1.96100649       1.35752715       0.36923756       0.00000000
Si       0.90606609       0.40734774       2.35633094       0.00000000
Si       1.95092298      -0.34098228      -3.03655634       0.00000000
Si      -0.69237387      -1.14706035       3.44160798       0.00000000
Si      -0.77600673       3.62017557       0.01030173       0.00000000
Si      -1.23970158       1.61427384      -3.24380090       0.00000000
Si      -0.08037486      -3.18349443       2.12844834       0.00000000
Si       1.47859443       3.52890270      -0.49005820       0.00000000
