10
Lattice="16.28999089631971 0.0 0.0 0.0 16.28999089631971 0.0 0.0 0.0 34.56954931742767" Properties=species:S:1:pos:R:3:initial_magmoms:R:1 pbc="T T T"
Si      -0.95158035       1.72970478      -1.22780737       0.00000000
Si       0.09563859       1.71002646       1.62048310       0.00000000
Si       1.84228497      -0.72485613      -1.34015847       0.00000000
Si      -1.48621815      -1.99919025       0.44152253       0.00000000
Si      -2.12665950       0.11471418      -2.50124657       0.00000000
Si       1.71227448       0.58380102       2.93516379       0.00000000
Si       0.83500911      -2.40052698      -2.60336507       0.00000000
Si       2.94889725      -2.20307589       0.03031751       0.00000000
Si      -0.69437754      -3.47459184      -1.26773522       0.00000000
Si       0.71456085       2.89227321      -2.52713918       0.00000000
