10
Lattice="16.28999089631971 0.0 0.0 0.0 16.28999089631971 0.0 0.0 0.0 34.56954931742767" Properties=species:S:1:pos:R:3:initial_magmoms:R:1 pbc="T T T"
Si      -1.35733167      -1.35834165       1.35668272       0.00000000
Si       1.35728280       1.35899325       1.35689014       0.00000000
Si       1.35769005      -1.35772263      -1.35792723       0.00000000
Si      -1.35832536       1.35760860      -1.35771981       0.00000000
Si       0.00040725       2.71016730       2.71433339       0.00000000
Si       2.71471221      -2.71477737      -0.00017285       0.00000000
Si      -0.00149868      -2.71448415       2.71502478       0.00000000
Si       2.71469592       2.71489140      -0.00017285       0.00000000
Si      -2.71552671      -0.00003258      -2.71460995       0.00000000
Si      -0.00229689       2.71577106      -2.71450624       0.00000000
