10
Lattice="16.28999089631971 0.0 0.0 0.0 16.28999089631971 0.0 0.0 0.0 34.56954931742767" Properties=species:S:1:pos:R:3:initial_magmoms:R:1 pbc="T T T"
Si       1.35319401      -1.35469269      -1.35540365       0.00000000
Si       1.35552348       1.35765747       1.35682100       0.00000000
Si      -1.35905841      -1.35710361       1.35675186       0.00000000
Si      -1.35777150       1.35751086      -1.36335465       0.00000000
Si       2.72069064      -0.00910611      -2.70066113       0.00000000
Si       2.71189404      -2.71451673      -0.00020742       0.00000000
Si       2.71293660       0.00070047       2.71412597       0.00000000
Si      -0.02129103      -2.70490563      -2.72230859       0.00000000
Si      -0.00203625      -2.71415835       2.71450624       0.00000000
Si       2.71362078       2.71595025      -0.00082967       0.00000000
