10
Lattice="16.28999089631971 0.0 0.0 0.0 16.28999089631971 0.0 0.0 0.0 34.56954931742767" Properties=species:S:1:pos:R:3:initial_magmoms:R:1 pbc="T T T"
Si       1.14758163       1.94720886       0.68886779       0.00000000
Si       1.04940180      -1.78134408       1.14463299       0.00000000
Si       0.35062596      -0.12367368      -2.33479410       0.00000000
Si      -2.32854147      -0.08638587       0.60341182       0.00000000
Si       0.82745055       1.94681790       2.98923060       0.00000000
Si      -0.93351474       1.60888185      -3.26143138       0.00000000
Si       0.24319341      -3.74516874       0.15722240       0.00000000
Si       3.34862127      -1.49646456       0.86538001       0.00000000
Si      -0.21067857       3.82259511      -0.07390974       0.00000000
Si      -2.48940522       0.05768289       2.95424620       0.00000000
