10
Lattice="16.28999089631971 0.0 0.0 0.0 16.28999089631971 0.0 0.0 0.0 34.56954931742767" Properties=species:S:1:pos:R:3:initial_magmoms:R:1 pbc="T T T"
Si      -0.32013108      -0.00039096       2.30036281       0.00000000
Si      -1.14758163      -1.94720886      -0.68886779       0.00000000
Si       2.36491704       0.14081076      -0.37936645       0.00000000
Si      -1.35826020       1.87538625      -0.76277753       0.00000000
Si       2.13467418       2.23617717      -1.41603867       0.00000000
Si       1.22047938       1.75345560       2.90142390       0.00000000
Si       2.72122821      -1.88926533      -1.56292477       0.00000000
Si      -3.19230243       1.69686414       0.69353469       0.00000000
Si      -2.64572406       0.31170915       2.54079416       0.00000000
Si      -0.79695567      -2.07088254      -3.02366189       0.00000000
