10
Lattice="16.28999089631971 0.0 0.0 0.0 16.28999089631971 0.0 0.0 0.0 34.56954931742767" Properties=species:S:1:pos:R:3:initial_magmoms:R:1 pbc="T T T"
Si      -1.34358291      -1.34118828       1.36878207       0.00000000
Si       1.35687555      -1.35117405      -1.35744325       0.00000000
Si      -1.35775521       1.36187658      -1.35740868       0.00000000
Si       1.36405944       1.35635427       1.37752817       0.00000000
Si      -2.61228069       0.06094089       2.77071636       0.00000000
Si       2.71226871      -2.70775638       0.00456318       0.00000000
Si      -0.00040725      -2.71016730      -2.71433339       0.00000000
Si      -2.71371852      -2.71386513       0.00297298       0.00000000
Si       2.71428867       0.00472410      -2.71450624       0.00000000
Si      -2.71570590       0.00487071      -2.71443710       0.00000000
