10
Lattice="16.28999089631971 0.0 0.0 0.0 16.28999089631971 0.0 0.0 0.0 34.56954931742767" Properties=species:S:1:pos:R:3:initial_magmoms:R:1 pbc="T T T"
Si       0.77809185      -1.47215988      -1.67921680       0.00000000
Si      -2.30992200      -0.54032301      -0.17630480       0.00000000
Si       1.05521733       2.08809197       0.63258854       0.00000000
Si       0.46094184      -1.08991503       2.21556365       0.00000000
Si      -1.00427850       0.56821216       3.00471777       0.00000000
Si      -1.96079472      -2.78746335       0.49704126       0.00000000
Si      -0.17063775      -3.56118948      -0.84228754       0.00000000
Si      -0.32192298       2.86491320       2.41074344       0.00000000
Si       3.13046559      -1.16958942      -1.73815791       0.00000000
Si      -3.37532058       0.41772677       1.68291574       0.00000000
