10
Lattice="16.28999089631971 0.0 0.0 0.0 16.28999089631971 0.0 0.0 0.0 34.56954931742767" Properties=species:S:1:pos:R:3:initial_magmoms:R:1 pbc="T T T"
Si      -1.06539858       0.95804978       1.85922054       0.00000000
Si       0.34912728      -2.24714034       0.67334606       0.00000000
Si       2.30992200       0.54032301       0.17630480       0.00000000
Si      -1.01762001       0.34681410      -2.13463629       0.00000000
Si       3.08801385      -0.93183687      -1.50291200       0.00000000
Si       1.30564350       1.10853517       3.18102257       0.00000000
Si      -0.92872548       2.73827474      -2.22863095       0.00000000
Si       2.77086384      -0.54959202       2.39186845       0.00000000
Si       2.13928425      -3.02086647      -0.66598274       0.00000000
Si      -1.76551020      -3.27956796       0.98530185       0.00000000
