10
Lattice="16.28999089631971 0.0 0.0 0.0 16.28999089631971 0.0 0.0 0.0 34.56954931742767" Properties=species:S:1:pos:R:3:initial_magmoms:R:1 pbc="T T T"
Si      -1.35040373      -1.35682668       1.39833214       0.00000000
Si       1.36136718       1.36267479       1.39625796       0.00000000
Si       1.41952410      -1.32853095      -1.49195690       0.00000000
Si      -1.48965065       1.39087278      -1.48382614       0.00000000
Si      -2.69561564      -2.70871749       0.02278480       0.00000000
Si      -2.70060038       2.70692559       0.05725758       0.00000000
Si       2.71133577      -2.70511740       0.02695044       0.00000000
Si       2.71687437       2.71534752       0.01301544       0.00000000
Si      -2.70939698       0.00151497       2.75771128       0.00000000
Si       0.00580393      -2.71355562       2.75798784       0.00000000
