10
Lattice="16.28999089631971 0.0 0.0 0.0 16.28999089631971 0.0 0.0 0.0 34.56954931742767" Properties=species:S:1:pos:R:3:initial_magmoms:R:1 pbc="T T T"
Si       1.35632169       1.35709085       1.35657901       0.00000000
Si      -1.35708732      -1.35772955       1.35733954       0.00000000
Si      -1.35770634       1.35816924      -1.35775438       0.00000000
Si       1.35835794      -1.35766439      -1.35768524       0.00000000
Si      -2.71485882       2.71471248      -0.00017285       0.00000000
Si      -2.71479366      -2.71502864      -0.00003457       0.00000000
Si      -2.71458189       0.00023743      -2.71537048       0.00000000
Si       0.00087966      -2.71458881      -2.71537048       0.00000000
Si       2.71531241       2.71503828      -0.00013828       0.00000000
Si       2.71519526      -2.71520783      -0.00027656       0.00000000
