10
Lattice="16.28999089631971 0.0 0.0 0.0 16.28999089631971 0.0 0.0 0.0 34.56954931742767" Properties=species:S:1:pos:R:3:initial_magmoms:R:1 pbc="T T T"
Si      -1.11610935      -1.60345695      -1.38105427       0.00000000
Si       0.60320241      -1.01714760       2.09764686       0.00000000
Si       1.63293601       1.15126317      -1.41870053       0.00000000
Si      -1.76749758       1.28371716       1.14000066       0.00000000
Si      -1.48840101      -0.83480874       3.27788650       0.00000000
Si      -3.31871283      -0.64692803       1.54418806       0.00000000
Si       2.39855656       2.86001901       0.14470821       0.00000000
Si       0.17699085       2.39085072      -2.86654320       0.00000000
Si      -2.75929794      -2.65358303       0.13637695       0.00000000
Si      -2.52929943      -0.32848948      -2.86664691       0.00000000
