10
Lattice="16.28999089631971 0.0 0.0 0.0 16.28999089631971 0.0 0.0 0.0 34.56954931742767" Properties=species:S:1:pos:R:3:initial_magmoms:R:1 pbc="T T T"
Si       1.43577521      -1.83681872      -0.11802051       0.00000000
Si      -0.60320241       1.01714760      -2.09764686       0.00000000
Si      -2.09160342       0.18233886       1.18023964       0.00000000
Si       1.55646130       1.11755916       1.65809479       0.00000000
Si      -2.37069999       2.30086476      -0.95764619       0.00000000
Si      -1.90399149       2.22441579       2.28601643       0.00000000
Si      -2.25455229      -1.85832152       2.32521833       0.00000000
Si       2.10956056       3.19784103       0.49583132       0.00000000
Si       0.49697532      -3.80531861       0.68292183       0.00000000
Si      -1.71931176      -0.58630935      -3.47870112       0.00000000
