10
Lattice="16.28999089631971 0.0 0.0 0.0 16.28999089631971 0.0 0.0 0.0 34.56954931742767" Properties=species:S:1:pos:R:3:initial_magmoms:R:1 pbc="T T T"
Si      -0.18761193      -2.04207693      -1.10577679       0.00000000
Si       2.08207377      -0.08790084       1.05616946       0.00000000
Si       0.16314435       1.78137666      -1.50650723       0.00000000
Si      -2.12120235       0.71190558       0.77425463       0.00000000
Si      -0.46670850       0.07644897      -3.24366263       0.00000000
Si      -1.70333127       2.86332588      -0.33881634       0.00000000
Si       2.43077751       2.51584389      -1.02153075       0.00000000
Si       3.46045279      -1.10685663      -0.62792164       0.00000000
Si       1.90399149      -2.22441579      -2.28601643       0.00000000
Si       1.89177399      -1.61957298       2.77455358       0.00000000
