10
Lattice="16.28999089631971 0.0 0.0 0.0 16.28999089631971 0.0 0.0 0.0 34.56954931742767" Properties=species:S:1:pos:R:3:initial_magmoms:R:1 pbc="T T T"
Si       0.25585074      -1.71649848      -1.56389272       0.00000000
Si      -1.13191065      -1.02307716       1.79865466       0.00000000
Si       1.92177107       0.69900390       1.27461457       0.00000000
Si      -1.56221100       1.75545927      -0.61806932       0.00000000
Si       0.44615052      -0.18482634      -3.28227683       0.00000000
Si      -1.65828942       2.40370353       1.60748494       0.00000000
Si       0.68119893       2.56836285       2.04686416       0.00000000
Si       0.54973863      -2.56226224       2.39874780       0.00000000
Si      -2.59485039      -2.36654278       0.64662378       0.00000000
Si      -1.45665180      -3.34361114      -1.12980264       0.00000000
