10
Lattice="16.28999089631971 0.0 0.0 0.0 16.28999089631971 0.0 0.0 0.0 34.56954931742767" Properties=species:S:1:pos:R:3:initial_magmoms:R:1 pbc="T T T"
Si      -1.46293974      -1.34346562      -1.15203087       0.00000000
Si       1.68164928      -1.53918508       0.60009314       0.00000000
Si       1.13191065       1.02307716      -1.79865466       0.00000000
Si      -1.47276261       1.59586614       0.97448157       0.00000000
Si       3.18869324       0.13336623       1.30323817       0.00000000
Si      -0.52637877       3.42678069      -0.19116971       0.00000000
Si       3.05368172       1.72208106      -0.52404009       0.00000000
Si      -3.22457292       0.09200592      -1.69912887       0.00000000
Si       1.38776139      -0.69342132      -3.36254737       0.00000000
Si      -0.43030035       2.77853643      -2.41672397       0.00000000
