10
Lattice="16.28999089631971 0.0 0.0 0.0 16.28999089631971 0.0 0.0 0.0 34.56954931742767" Properties=species:S:1:pos:R:3:initial_magmoms:R:1 pbc="T T T"
Si       0.47861649      -2.24470403      -0.48587529       0.00000000
Si      -2.37454443       0.24804783      -0.21889451       0.00000000
Si       1.61052618       1.34452773      -1.23427188       0.00000000
Si       0.52325109       0.05126463       2.51759798       0.00000000
Si      -2.61273681       2.27252016      -1.38969666       0.00000000
Si      -0.57241431      -3.49571087       1.54270157       0.00000000
Si       3.28501601       2.01960162       0.39170778       0.00000000
Si       2.13746696       0.34487559      -3.31294004       0.00000000
Si       2.71543127      -2.88628568      -0.26542515       0.00000000
Si      -0.29929617      -3.00963356      -2.58964096       0.00000000
