10
Lattice="16.28999089631971 0.0 0.0 0.0 16.28999089631971 0.0 0.0 0.0 34.56954931742767" Properties=species:S:1:pos:R:3:initial_magmoms:R:1 pbc="T T T"
Si      -1.21181310      -1.40020695      -1.48988761       0.00000000
Si      -1.39764942       1.28471085       1.49428689       0.00000000
Si       1.30796579      -1.43931924       1.48275448       0.00000000
Si       1.43379858       1.32471909      -1.52189903       0.00000000
Si      -2.51685387       0.26164998      -2.68958992       0.00000000
Si       2.36149355      -0.58148784      -2.78628100       0.00000000
Si      -2.67742440      -2.66455367       0.01358584       0.00000000
Si       2.71749033       2.66489739      -0.02045481       0.00000000
Si       0.54260361      -2.34294183      -3.00925472       0.00000000
Si      -2.70203859       2.77034256       0.12566730       0.00000000
