10
Lattice="16.28999089631971 0.0 0.0 0.0 16.28999089631971 0.0 0.0 0.0 34.56954931742767" Properties=species:S:1:pos:R:3:initial_magmoms:R:1 pbc="T T T"
Si       1.35620766      -1.35672894       1.35965570       0.00000000
Si      -1.34521191      -1.35189081      -1.37554733       0.00000000
Si      -1.35899325       1.35834165       1.35937915       0.00000000
Si       1.35040373       1.35682668      -1.39833214       0.00000000
Si      -2.64960108       0.13374090      -2.74416693       0.00000000
Si       2.71402544      -2.71564074      -0.00141735       0.00000000
Si      -0.00030951      -2.71401174       2.71661498       0.00000000
Si       2.71442943       0.00052128       2.71658041       0.00000000
Si       2.71177091       2.71950147      -0.00207417       0.00000000
Si      -2.71591767       0.00117288       2.71658041       0.00000000
