10
Lattice="16.28999089631971 0.0 0.0 0.0 16.28999089631971 0.0 0.0 0.0 34.56954931742767" Properties=species:S:1:pos:R:3:initial_magmoms:R:1 pbc="T T T"
Si      -1.71607005      -1.08639639       1.18514852       0.00000000
Si      -1.37502261       1.26252387      -1.45641593       0.00000000
Si       1.33503066      -1.45748259      -1.45091937       0.00000000
Si       1.84067226       0.95588091       1.46841157       0.00000000
Si      -0.60945777      -2.56461615       2.55562450       0.00000000
Si       2.68301187       2.60165961      -0.05137038       0.00000000
Si      -2.84379417       2.53073295      -0.00183219       0.00000000
Si      -0.01904301       2.61254133      -2.83045257       0.00000000
Si      -2.72334591      -2.76206724      -0.07805809       0.00000000
Si       2.79097582      -2.69707014      -0.00307669       0.00000000
