10
Lattice="16.28999089631971 0.0 0.0 0.0 16.28999089631971 0.0 0.0 0.0 34.56954931742767" Properties=species:S:1:pos:R:3:initial_magmoms:R:1 pbc="T T T"
Si       0.25568784      -0.34223661       2.30489142       0.00000000
Si       1.24057214      -1.86935895      -0.77224959       0.00000000
Si      -2.33948835      -0.16465932      -0.43937922       0.00000000
Si       0.49796901       2.22812991      -0.74960653       0.00000000
Si      -0.68119893      -2.56836285      -2.04686416       0.00000000
Si      -2.24340993      -0.81290358      -2.66493348       0.00000000
Si      -0.43108227       3.43016901       1.13536834       0.00000000
Si       1.96846472       1.12106151       2.86163432       0.00000000
Si      -1.79569557       0.21906792       3.25227045       0.00000000
Si      -2.31036183       2.24735211       2.03998481       0.00000000
