10
Lattice="16.28999089631971 0.0 0.0 0.0 16.28999089631971 0.0 0.0 0.0 34.56954931742767" Properties=species:S:1:pos:R:3:initial_magmoms:R:1 pbc="T T T"
Si      -0.37522386       2.36092599       0.17824070       0.00000000
Si      -0.02347389      -0.29276388      -2.38709785       0.00000000
Si       2.23130646       0.73365273       0.61426667       0.00000000
Si      -1.52586801      -1.65892473       1.56586318       0.00000000
Si       1.92067245       2.83731075      -0.57613643       0.00000000
Si       2.42478444      -0.59585562       2.73355407       0.00000000
Si      -1.60239843      -2.04226101      -2.66109625       0.00000000
Si      -1.42602660       3.11052663      -1.87667817       0.00000000
Si       2.02790952      -0.85406841      -3.33447688       0.00000000
Si      -1.06577325       2.70044217       2.75647369       0.00000000
