10
Lattice="16.28999089631971 0.0 0.0 0.0 16.28999089631971 0.0 0.0 0.0 34.56954931742767" Properties=species:S:1:pos:R:3:initial_magmoms:R:1 pbc="T T T"
Si      -1.35435060       1.35614250      -1.35827292       0.00000000
Si       1.34965908       1.35035955       1.37151307       0.00000000
Si       1.36016613      -1.36006839      -1.35851491       0.00000000
Si      -1.35597960      -1.35001746       1.37403664       0.00000000
Si      -0.08039115       2.56655466       2.82709932       0.00000000
Si      -2.71318095      -0.00175932      -2.71575074       0.00000000
Si       0.00179190       2.71309950      -2.71613101       0.00000000
Si      -2.71555929      -2.71490769       0.00321497       0.00000000
Si      -2.71521720       2.71542897       0.00331868       0.00000000
Si       2.71544307      -2.71601541       0.00010371       0.00000000
