10
Lattice="16.28999089631971 0.0 0.0 0.0 16.28999089631971 0.0 0.0 0.0 34.56954931742767" Properties=species:S:1:pos:R:3:initial_magmoms:R:1 pbc="T T T"
Si       1.43736444       1.12892958       1.44538823       0.00000000
Si       1.43005023      -1.21619511      -1.45558626       0.00000000
Si      -1.73802897      -0.93517632       1.32418733       0.00000000
Si      -1.26213291       1.50635259      -1.44438572       0.00000000
Si      -3.35450196       0.99914715       1.11597481       0.00000000
Si       2.78244603      -2.57743638      -0.04801713       0.00000000
Si      -2.74436001      -2.64836304       0.00152106       0.00000000
Si       0.08039115      -2.56655466      -2.82709932       0.00000000
Si       2.72521926       2.72218932       0.00210874       0.00000000
Si      -2.63482605       0.14887431      -2.82378064       0.00000000
