10
Lattice="16.28999089631971 0.0 0.0 0.0 16.28999089631971 0.0 0.0 0.0 34.56954931742767" Properties=species:S:1:pos:R:3:initial_magmoms:R:1 pbc="T T T"
Si       1.57138227       1.13989275       1.38039745       0.00000000
Si      -1.26928585       1.43218422      -1.47902442       0.00000000
Si       1.42480485      -1.28542761      -1.48766682       0.00000000
Si      -1.76651041      -0.80783739       1.53647905       0.00000000
Si      -2.53213096      -2.51659323      -0.02692969       0.00000000
Si       3.33503541      -0.67126203       1.36200643       0.00000000
Si       2.73960333      -2.58341481      -0.04577011       0.00000000
Si      -2.64009491       2.78213652      -0.07522338       0.00000000
Si      -2.62670672       0.07700283      -2.85420186       0.00000000
Si       0.09211995      -2.63901258      -2.85465127       0.00000000
