10
Lattice="16.28999089631971 0.0 0.0 0.0 16.28999089631971 0.0 0.0 0.0 34.56954931742767" Properties=species:S:1:pos:R:3:initial_magmoms:R:1 pbc="T T T"
Si       1.30864316       1.32512634       1.42298715       0.00000000
Si       1.54526844      -0.79692309      -1.62089793       0.00000000
Si      -1.42648272       1.82902491      -0.59148532       0.00000000
Si      -0.93152736      -1.95543531       1.07262458       0.00000000
Si       2.51684477       2.59553457      -0.14840716       0.00000000
Si       2.96630216       1.13080293      -2.00565723       0.00000000
Si       2.75578649      -2.53135197      -0.34624880       0.00000000
Si       3.00666878       0.03725523       2.33914986       0.00000000
Si       0.13473459      -1.10837160      -3.65082300       0.00000000
Si      -3.62128329       0.93874383      -0.86347869       0.00000000
