10
Lattice="16.28999089631971 0.0 0.0 0.0 16.28999089631971 0.0 0.0 0.0 34.56954931742767" Properties=species:S:1:pos:R:3:initial_magmoms:R:1 pbc="T T T"
Si       1.35683732      -1.35754344       1.35740868       0.00000000
Si      -1.35747828      -1.35692442      -1.35768524       0.00000000
Si      -1.35835794       1.35766439       1.35768524       0.00000000
Si       1.35847500       1.35839480      -1.35765067       0.00000000
Si      -0.00052128      -2.71347417       2.71481736       0.00000000
Si      -0.00203625       2.71475523       2.71426425       0.00000000
Si       2.71451088      -2.71463076      -0.00003457       0.00000000
Si       2.71422255       2.71527326      -0.00003457       0.00000000
Si       2.71433495      -0.00288333      -2.71526677       0.00000000
Si       2.71487741       0.00060273       2.71530134       0.00000000
