10
Lattice="16.28999089631971 0.0 0.0 0.0 16.28999089631971 0.0 0.0 0.0 34.56954931742767" Properties=species:S:1:pos:R:3:initial_magmoms:R:1 pbc="T T T"
Si       1.35518620       1.36004130      -1.38454579       0.00000000
Si      -1.35881406      -1.35599589      -1.38803732       0.00000000
Si      -1.29898089       1.44230782       1.47688111       0.00000000
Si       1.28487375      -1.49460750       1.44106704       0.00000000
Si       2.69984174      -2.70718623      -0.02997182       0.00000000
Si      -2.70247842      -2.71044423      -0.00542742       0.00000000
Si      -2.71217097       2.71727530      -0.00871153       0.00000000
Si       2.72226818       2.70935510      -0.00110623       0.00000000
Si      -0.00052128      -2.71155195      -2.74672508       0.00000000
Si       2.71487741       0.00252495      -2.74624110       0.00000000
