10
Lattice="16.28999089631971 0.0 0.0 0.0 16.28999089631971 0.0 0.0 0.0 34.56954931742767" Properties=species:S:1:pos:R:3:initial_magmoms:R:1 pbc="T T T"
Si      -1.35550719      -1.35267273       1.38324252       0.00000000
Si       1.36107837       1.35847197       1.38227457       0.00000000
Si       1.43376435      -1.28379861      -1.41723478       0.00000000
Si      -1.26000544       1.41555213      -1.56048070       0.00000000
Si       2.24769420       0.55472337      -2.64117381       0.00000000
Si      -2.69085455       2.72587086      -0.00773321       0.00000000
Si      -2.71687437      -2.71534752      -0.01301544       0.00000000
Si       2.71477737       2.73248460       0.02565753       0.00000000
Si      -2.70970196       0.00130320       2.74448842       0.00000000
Si       0.00436572      -2.71363707       2.74459213       0.00000000
