10
Lattice="16.28999089631971 0.0 0.0 0.0 16.28999089631971 0.0 0.0 0.0 34.56954931742767" Properties=species:S:1:pos:R:3:initial_magmoms:R:1 pbc="T T T"
Si       1.35735142       1.35526284       1.35671729       0.00000000
Si      -1.35625048      -1.35798327       1.35740868       0.00000000
Si       1.35775541      -1.35785295      -1.35733954       0.00000000
Si      -1.35753739       1.35798327      -1.35775438       0.00000000
Si      -2.71462471      -2.71469592      -0.00010371       0.00000000
Si      -0.00046636      -2.71510317      -2.71426425       0.00000000
Si       2.71496980       0.00016290      -2.71464452       0.00000000
Si      -2.71462471       2.71518462      -0.00020742       0.00000000
Si       0.00090212       2.71510317      -2.71474823       0.00000000
Si      -0.00097354      -2.71393029       2.71602730       0.00000000
