10
Lattice="16.28999089631971 0.0 0.0 0.0 16.28999089631971 0.0 0.0 0.0 34.56954931742767" Properties=species:S:1:pos:R:3:initial_magmoms:R:1 pbc="T T T"
Si       1.35574755       1.35687846       1.35761610       0.00000000
Si      -1.35847500      -1.35839480       1.35765067       0.00000000
Si       1.35585995      -1.36127813      -1.35761610       0.00000000
Si      -1.35897999       1.35817026      -1.36228299       0.00000000
Si       2.71357606      -2.71382054       0.00024199       0.00000000
Si       2.71316881       2.71486173       0.00017285       0.00000000
Si       2.71375525      -0.00048772       2.71502478       0.00000000
Si      -0.00152053       2.71430787       2.71519763       0.00000000
Si      -0.00163768      -2.71593824       2.71505935       0.00000000
Si      -2.71595328      -2.71531922      -0.00003457       0.00000000
