10
Lattice="16.28999089631971 0.0 0.0 0.0 16.28999089631971 0.0 0.0 0.0 34.56954931742767" Properties=species:S:1:pos:R:3:initial_magmoms:R:1 pbc="T T T"
Si       1.35735285       1.35730434      -1.35792723       0.00000000
Si      -1.35804009      -1.35814617      -1.35789266       0.00000000
Si       1.36008957      -1.35878148       1.35969027       0.00000000
Si      -1.35969121       1.35751635       1.36169531       0.00000000
Si      -0.01503567      -2.70971118       2.71626929       0.00000000
Si      -2.71539869      -2.71407690      -0.00048397       0.00000000
Si       2.71445646       2.71504520      -0.00114080       0.00000000
Si       2.71445646      -0.00058644      -2.71512849       0.00000000
Si       2.71422840      -2.71567332      -0.00006914       0.00000000
Si      -0.00065486       2.71467053      -2.71533591       0.00000000
