10
Lattice="16.28999089631971 0.0 0.0 0.0 16.28999089631971 0.0 0.0 0.0 34.56954931742767" Properties=species:S:1:pos:R:3:initial_magmoms:R:1 pbc="T T T"
Si      -1.11530137      -1.61898165       1.33345197       0.00000000
Si       1.46569275       1.35923175       1.29189935       0.00000000
Si       1.41053481      -1.26667782      -1.49022496       0.00000000
Si      -1.29177419       1.43816495      -1.48082204       0.00000000
Si       2.87622756      -2.57041539      -0.09838499       0.00000000
Si      -2.72916863      -2.76579765      -0.03864878       0.00000000
Si       0.06092460      -2.62744668      -2.86626664       0.00000000
Si      -2.56397791       2.92583780      -0.04048096       0.00000000
Si      -2.65885618       0.08885115      -2.86426161       0.00000000
Si       2.70775638       2.85901622      -0.05932138       0.00000000
