10
Lattice="16.28999089631971 0.0 0.0 0.0 16.28999089631971 0.0 0.0 0.0 34.56954931742767" Properties=species:S:1:pos:R:3:initial_magmoms:R:1 pbc="T T T"
Si      -0.93879989      -1.96849989       0.80094234       0.00000000
Si      -1.43577521       1.83681872       0.11802051       0.00000000
Si       1.04263493      -0.53958996      -2.02439394       0.00000000
Si       2.48178150      -2.14596315      -0.87951897       0.00000000
Si       0.12068609       2.95437788       1.77611530       0.00000000
Si       1.08955176      -3.23434692       0.77173105       0.00000000
Si      -1.53964025      -1.26014553       2.90723158       0.00000000
Si      -0.57123233      -1.68640596      -3.39649469       0.00000000
Si       0.67388798      -0.40795047       3.76766815       0.00000000
Si       2.89448865      -0.02393001       2.66541745       0.00000000
