10
Lattice="16.28999089631971 0.0 0.0 0.0 16.28999089631971 0.0 0.0 0.0 34.56954931742767" Properties=species:S:1:pos:R:3:initial_magmoms:R:1 pbc="T T T"
Si       0.99020068      -1.76314815       1.15251485       0.00000000
Si      -0.03708581       1.80395527       1.58432333       0.00000000
Si       2.22060067       0.38402046      -1.10225070       0.00000000
Si      -2.21352822      -0.85219506      -0.86043656       0.00000000
Si       1.72370680       2.69054992      -1.34658841       0.00000000
Si       1.43965807      -3.22787979      -0.70473523       0.00000000
Si      -1.61268786      -1.56054942      -2.96672581       0.00000000
Si      -2.12188068       2.84961200       1.41092237       0.00000000
Si      -0.67388798       0.40795047      -3.76766815       0.00000000
Si       1.92027823       3.17272904       1.03525487       0.00000000
