10
Lattice="16.28999089631971 0.0 0.0 0.0 16.28999089631971 0.0 0.0 0.0 34.56954931742767" Properties=species:S:1:pos:R:3:initial_magmoms:R:1 pbc="T T T"
Si      -0.99020068       1.76314815      -1.15251485       0.00000000
Si      -1.20820161      -1.27040823       1.57139431       0.00000000
Si       2.13987069       0.53537085       0.95170022       0.00000000
Si       0.44945739      -1.46473164      -1.85725008       0.00000000
Si       2.46809790      -1.72222767       1.44417830       0.00000000
Si       1.23039999       2.14716861      -2.25476554       0.00000000
Si      -2.23771562       0.46517724       2.76874589       0.00000000
Si       0.48982401      -2.55827934       2.48755702       0.00000000
Si      -2.51684477      -2.59553457       0.14840716       0.00000000
Si      -1.02728650       3.56710342       0.43180848       0.00000000
