10
Lattice="16.28999089631971 0.0 0.0 0.0 16.28999089631971 0.0 0.0 0.0 34.56954931742767" Properties=species:S:1:pos:R:3:initial_magmoms:R:1 pbc="T T T"
Si       1.77238295       0.27989478      -1.49195344       0.00000000
Si       0.86449238      -1.55949057       1.55417867       0.00000000
Si       0.17535533       2.00166633       1.29300558       0.00000000
Si      -1.81665333      -0.16179228      -1.62584138       0.00000000
Si       1.42431452      -3.15749070      -0.12704316       0.00000000
Si      -2.06145945       2.64324798       1.07255544       0.00000000
Si      -2.83937211       1.87831845      -1.03121023       0.00000000
Si       2.15197253      -2.00003733      -2.08796738       0.00000000
Si       3.44670173       1.42508178      -0.29771313       0.00000000
Si       2.03580854       3.19941352       0.38825083       0.00000000
