10
Lattice="10.86 0.0 0.0 0.0 10.86 0.0 0.0 0.0 10.86" Properties=species:S:1:pos:R:3:initial_magmoms:R:1 pbc="T T T"
Si      -1.45602192      -0.56064750      -1.74789528       0.00000000
Si      -1.01178276      -1.50717252       1.58892660       0.00000000
Si       1.70321724      -1.50717252      -1.12607340       0.00000000
Si       1.70321724       1.20782748       1.58892660       0.00000000
Si      -2.47053054       2.67304782       0.45705396       0.00000000
Si      -2.36928276      -2.86467252       0.23142660       0.00000000
Si      -2.36928276      -0.14967252       2.94642660       0.00000000
Si       0.34571724      -2.86467252      -2.48357340       0.00000000
Si       0.34571724       2.56532748       2.94642660       0.00000000
Si       2.91948294      -0.23254518      -2.68415760       0.00000000
