10
Lattice="10.86 0.0 0.0 0.0 10.86 0.0 0.0 0.0 10.86" Properties=species:S:1:pos:R:3:initial_magmoms:R:1 pbc="T T T"
Si       1.45874778       1.24977966       1.13187264       0.00000000
Si      -1.25625222      -1.46522034       1.13187264       0.00000000
Si      -1.25625222       1.24977966      -1.58312736       0.00000000
Si       0.10124778       2.60727966       2.48937264       0.00000000
Si      -2.61375222      -0.10772034       2.48937264       0.00000000
Si       2.47053054      -2.67304782      -0.45705396       0.00000000
Si      -2.61375222       2.60727966      -0.22562736       0.00000000
Si       2.81624778      -0.10772034       2.48937264       0.00000000
Si       0.10124778      -2.82272034       2.48937264       0.00000000
Si       2.82645618       2.51005008      -0.39882264       0.00000000
