10
Lattice="16.28999089631971 0.0 0.0 0.0 16.28999089631971 0.0 0.0 0.0 34.51877397758722" Properties=species:S:1:pos:R:3:initial_magmoms:R:1 pbc="T T T"
Si      -0.39469041       0.88743033      -2.14831162       0.00000000
Si      -0.48860992       1.76135203       1.50063550       0.00000000
Si      -1.89909702      -1.46691450      -0.11822687       0.00000000
Si       2.19600440      -1.01173932       0.52686034       0.00000000
Si      -1.11066102      -3.32814474       1.00594667       0.00000000
Si       1.15621370       3.39020054       0.95886304       0.00000000
Si       1.54937285       1.96452091      -2.87182552       0.00000000
Si       1.97105579      -1.66786794       2.81845947       0.00000000
Si       2.34898379      -2.88614817      -0.92116852       0.00000000
Si      -0.21136438       1.10428281       3.73016984       0.00000000
