10
Lattice="16.28999089631971 0.0 0.0 0.0 16.28999089631971 0.0 0.0 0.0 34.51877397758722" Properties=species:S:1:pos:R:3:initial_magmoms:R:1 pbc="T T T"
Si       1.35664749      -1.35615620       1.35541494       0.00000000
Si      -1.35666378      -1.35705092      -1.35679569       0.00000000
Si       1.35747828       1.35836771      -1.35676117       0.00000000
Si      -1.35417141       1.35973607       1.36321618       0.00000000
Si       2.70371646       0.00031603       2.70282151       0.00000000
Si       0.00003258      -2.71361819      -2.71404012       0.00000000
Si       2.71538010      -2.71268966      -0.00158786       0.00000000
Si       2.71479366       0.00108003      -2.71379849       0.00000000
Si      -2.71477574      -2.71420463      -0.00020711       0.00000000
Si      -2.71502824       0.00127551      -2.71428175       0.00000000
