10
Lattice="16.28999089631971 0.0 0.0 0.0 16.28999089631971 0.0 0.0 0.0 34.51877397758722" Properties=species:S:1:pos:R:3:initial_magmoms:R:1 pbc="T T T"
Si       1.46249991      -1.37028126      -1.22037742       0.00000000
Si      -1.62860904      -1.66245870       0.30103840       0.00000000
Si      -1.00888857       1.88428873      -1.04246756       0.00000000
Si       1.35672894       0.87173491       1.81841551       0.00000000
Si       3.34060659       0.04509561      -1.06759724       0.00000000
Si      -1.65416805      -1.76215350       2.63209251       0.00000000
Si       0.85123395       3.30506996      -1.46435625       0.00000000
Si      -2.57310161       2.80900688       0.47853403       0.00000000
Si       3.62918394       0.43443312       1.21941089       0.00000000
Si      -3.77602200      -0.89018238      -0.13210342       0.00000000
