10
Lattice="16.28999089631971 0.0 0.0 0.0 16.28999089631971 0.0 0.0 0.0 34.51877397758722" Properties=species:S:1:pos:R:3:initial_magmoms:R:1 pbc="T T T"
Si      -0.55692252      -2.23257612      -0.47946604       0.00000000
Si      -1.21173165       1.69781710       1.10850201       0.00000000
Si       0.26986014       0.83294842      -2.20464629       0.00000000
Si       1.98944883       0.34564774       1.25247989       0.00000000
Si       0.36142623       3.34173874       0.41104979       0.00000000
Si       3.21196446      -1.44734925       0.48543779       0.00000000
Si      -2.74103685      -1.80093999      -1.39096929       0.00000000
Si      -0.19885203       3.12962666      -1.85276171       0.00000000
Si      -1.30176648       0.58994887       3.35736687       0.00000000
Si      -1.36407573      -3.18941814       1.53926203       0.00000000
