10
Lattice="16.28999089631971 0.0 0.0 0.0 16.28999089631971 0.0 0.0 0.0 34.51877397758722" Properties=species:S:1:pos:R:3:initial_magmoms:R:1 pbc="T T T"
Si       2.03582972      -1.01638197       0.80953474       0.00000000
Si      -0.38659821      -0.74960064      -2.28759495       0.00000000
Si      -0.95977815       1.28291895       2.09090686       0.00000000
Si      -2.25711375      -1.59487245      -0.98934313       0.00000000
Si      -1.08498309       2.77382862      -0.97515591       0.00000000
Si      -2.68125648       2.29473972       0.87884848       0.00000000
Si       2.27596061       1.88517654      -2.34976330       0.00000000
Si      -2.30849241      -2.91813033       1.06114222       0.00000000
Si       3.46250792       0.70221303       1.76070009       0.00000000
Si      -3.94430163       0.23490180      -1.03401045       0.00000000
