10
Lattice="16.28999089631971 0.0 0.0 0.0 16.28999089631971 0.0 0.0 0.0 34.51877397758722" Properties=species:S:1:pos:R:3:initial_magmoms:R:1 pbc="T T T"
Si      -0.47271951      -2.26075878      -0.69541561       0.00000000
Si      -1.84639005       0.90890055       1.27567652       0.00000000
Si       2.08785672       0.18458199       1.22493390       0.00000000
Si      -0.94754043       0.82815102      -2.08721335       0.00000000
Si       1.52472771      -2.04644754      -2.28252069       0.00000000
Si      -1.58840532       3.25845612       0.66748991       0.00000000
Si      -3.73623205      -0.30695247       0.20134812       0.00000000
Si       2.48828121       2.51638146       1.31047147       0.00000000
Si       0.61203159       1.81944639      -3.50496923       0.00000000
Si      -2.48362227       2.73854448      -1.60774732       0.00000000
