10
Lattice="16.28999089631971 0.0 0.0 0.0 16.28999089631971 0.0 0.0 0.0 34.51877397758722" Properties=species:S:1:pos:R:3:initial_magmoms:R:1 pbc="T T T"
Si      -0.97028127      -1.68937074      -1.28064723       0.00000000
Si       1.49736051      -1.09944468       1.48127046       0.00000000
Si       1.73351664       1.08535383      -1.29045057       0.00000000
Si      -1.99744722      -0.21431124       1.58710508       0.00000000
Si      -0.50409405      -1.90868301       2.48566378       0.00000000
Si      -1.52472771       2.04644754       2.28252069       0.00000000
Si      -2.38006674      -0.34275789      -2.60955173       0.00000000
Si       0.33397758       2.38593114      -2.61724942       0.00000000
Si       2.36734425       0.97899642       2.53609574       0.00000000
Si      -2.47226814       2.87459856       0.19530733       0.00000000
