10
Lattice="16.28999089631971 0.0 0.0 0.0 16.28999089631971 0.0 0.0 0.0 34.51877397758722" Properties=species:S:1:pos:R:3:initial_magmoms:R:1 pbc="T T T"
Si      -1.56421304       0.92471814       1.52100159       0.00000000
Si       1.00888857      -1.88428873       1.04246756       0.00000000
Si       1.86012252       1.42078122      -0.42188869       0.00000000
Si      -1.39955535      -0.48855339      -1.86094266       0.00000000
Si      -2.60047370       1.58514732      -2.06684727       0.00000000
Si      -2.97258617       2.26307196       0.18087848       0.00000000
Si      -0.61972047      -3.54674744       1.34350595       0.00000000
Si       2.36561751      -1.01255382       2.86088307       0.00000000
Si      -2.96307444      -0.88863579       2.29726021       0.00000000
Si       0.01080027      -0.85515984      -3.77100557       0.00000000
