10
Lattice="16.28999089631971 0.0 0.0 0.0 16.28999089631971 0.0 0.0 0.0 34.51877397758722" Properties=species:S:1:pos:R:3:initial_magmoms:R:1 pbc="T T T"
Si      -1.60031331       1.92477753       0.13596953       0.00000000
Si       1.97102484       0.78138243       1.33974137       0.00000000
Si      -0.86392386      -1.90465938       1.48601821       0.00000000
Si       0.73842570       1.09243998      -2.31130936       0.00000000
Si      -0.93662613      -2.22216777      -2.70758511       0.00000000
Si       0.59377050       2.07304911       2.94736787       0.00000000
Si      -2.16142236      -0.63861687       2.96119610       0.00000000
Si       0.90406242      -0.92276334      -3.52740645       0.00000000
Si      -3.33503867       0.94056831       1.51156557       0.00000000
Si      -0.61809147       3.58507062       1.50723346       0.00000000
