10
Lattice="16.28999089631971 0.0 0.0 0.0 16.28999089631971 0.0 0.0 0.0 34.51877397758722" Properties=species:S:1:pos:R:3:initial_magmoms:R:1 pbc="T T T"
Si      -1.55957202      -0.99129537       1.41775588       0.00000000
Si      -1.46339586       1.23147513      -1.38976114       0.00000000
Si       1.24667370      -1.47996279      -1.39480088       0.00000000
Si       1.19185785       1.68464664       1.40681342       0.00000000
Si      -3.09565386       0.91909809       1.89722192       0.00000000
Si      -0.11349243       2.57963553      -2.75946685       0.00000000
Si       2.59801065      -0.13374090      -2.75663631       0.00000000
Si      -2.77342137       2.59607835       0.07141938       0.00000000
Si       2.64736935       2.73151015      -0.05664534       0.00000000
Si       2.64621276      -2.78054010      -0.06800202       0.00000000
