10
Lattice="16.28999089631971 0.0 0.0 0.0 16.28999089631971 0.0 0.0 0.0 34.51877397758722" Properties=species:S:1:pos:R:3:initial_magmoms:R:1 pbc="T T T"
Si      -1.25762058       1.42991828       1.37099672       0.00000000
Si       1.44502074      -1.30254093       1.34055805       0.00000000
Si      -1.72297701      -0.87610715      -1.38842668       0.00000000
Si       1.44635652       1.30803650      -1.37710451       0.00000000
Si      -0.45895446      -1.77442965      -3.17159850       0.00000000
Si       0.00029322       2.44758716      -2.82440848       0.00000000
Si      -2.61780300       0.07018058       2.71746093       0.00000000
Si       0.09376524      -2.64221424       2.71860005       0.00000000
Si      -2.63037888       2.75019020       0.05933781       0.00000000
Si       2.70987408       2.73984605       0.03647946       0.00000000
