10
Lattice="16.28999089631971 0.0 0.0 0.0 16.28999089631971 0.0 0.0 0.0 34.51877397758722" Properties=species:S:1:pos:R:3:initial_magmoms:R:1 pbc="T T T"
Si      -0.95292427       0.70903202      -2.04489331       0.00000000
Si      -1.58431068      -0.65714349       1.65493451       0.00000000
Si       0.85158907       2.07667526       0.84526169       0.00000000
Si       1.36487068      -2.04877442      -0.66759346       0.00000000
Si      -0.75698327      -1.17680330      -3.43178939       0.00000000
Si       2.89417588       1.44998267       1.83187784       0.00000000
Si       0.44593712       2.52238595      -2.82115194       0.00000000
Si      -0.43777909      -1.97957450       3.25374145       0.00000000
Si       1.39042969      -1.94907962      -2.99864757       0.00000000
Si       1.60006570       3.44415560      -0.96058898       0.00000000
