10
Lattice="16.28999089631971 0.0 0.0 0.0 16.28999089631971 0.0 0.0 0.0 34.51877397758722" Properties=species:S:1:pos:R:3:initial_magmoms:R:1 pbc="T T T"
Si       2.15647020      -0.10047672       0.87125434       0.00000000
Si      -0.96607845       1.91112651       1.10629281       0.00000000
Si      -1.65809394      -1.78238664       0.26040978       0.00000000
Si       1.32776532       0.31633551      -2.29674243       0.00000000
Si      -2.94027984       1.64160846      -0.04335560       0.00000000
Si       1.54829934      -0.39403881       3.10941838       0.00000000
Si      -3.46610475      -0.46328760       0.96183166       0.00000000
Si       3.07415106      -2.04861411      -0.15643917       0.00000000
Si      -0.64430208      -0.74653812       3.80093336       0.00000000
Si       3.50684604       1.79809020       0.29126958       0.00000000
