10
Lattice="16.28999089631971 0.0 0.0 0.0 16.28999089631971 0.0 0.0 0.0 34.51877397758722" Properties=species:S:1:pos:R:3:initial_magmoms:R:1 pbc="T T T"
Si      -1.36358703      -1.34237745      -1.37011994       0.00000000
Si      -1.32079320       1.44304965       1.31665033       0.00000000
Si       1.35334062       1.37239992      -1.36949860       0.00000000
Si       1.22813568      -1.28964672       1.64285293       0.00000000
Si       2.09598543       0.66591891       2.80537685       0.00000000
Si       2.69197137      -2.68074756       0.01801881       0.00000000
Si      -0.00622278      -2.69887833      -2.72967713       0.00000000
Si      -2.70575271      -2.72393235       0.00248535       0.00000000
Si       2.70817992       0.01557324      -2.72967713       0.00000000
Si       2.69682579       2.75169051      -0.00448744       0.00000000
