10
Lattice="16.28999089631971 0.0 0.0 0.0 16.28999089631971 0.0 0.0 0.0 34.51877397758722" Properties=species:S:1:pos:R:3:initial_magmoms:R:1 pbc="T T T"
Si       1.48866002       1.20124089      -1.33987945       0.00000000
Si      -1.30117608       1.42071606       1.40523936       0.00000000
Si       1.41983477      -1.30640913       1.41249521       0.00000000
Si      -1.52564877      -1.17284742      -1.42134380       0.00000000
Si      -0.27300900       1.09219563      -3.05919150       0.00000000
Si       2.74610141      -2.67833664      -0.11804392       0.00000000
Si      -2.65531140       0.05598873       2.79431357       0.00000000
Si       0.06443672      -2.65961943       2.79603951       0.00000000
Si      -2.75062419      -2.70567126       0.11350470       0.00000000
Si      -2.60824959       2.87323020      -0.12886556       0.00000000
