10
Lattice="16.28999089631971 0.0 0.0 0.0 16.28999089631971 0.0 0.0 0.0 34.51877397758722" Properties=species:S:1:pos:R:3:initial_magmoms:R:1 pbc="T T T"
Si      -1.35708895      -1.35654975       1.35762414       0.00000000
Si      -1.35734633       1.35729909      -1.35790029       0.00000000
Si       1.35755973      -1.35733167      -1.35810740       0.00000000
Si       1.35848826       1.35883035       1.35679569       0.00000000
Si      -2.71497373       2.71423980      -0.00010356       0.00000000
Si      -2.71495119      -2.71445157       0.00003452       0.00000000
Si      -2.71380793      -0.00003258      -2.71566250       0.00000000
Si       0.00042354       2.71487511      -2.71466146       0.00000000
Si       0.00078192      -2.71485882      -2.71507568       0.00000000
Si       2.71549413      -0.00006516      -2.71452338       0.00000000
