10
Lattice="16.28999089631971 0.0 0.0 0.0 16.28999089631971 0.0 0.0 0.0 34.51877397758722" Properties=species:S:1:pos:R:3:initial_magmoms:R:1 pbc="T T T"
Si       1.35708895       1.35654975      -1.35762414       0.00000000
Si      -1.35786224      -1.35790182      -1.35758962       0.00000000
Si      -1.36014310       1.35948195       1.35686473       0.00000000
Si       1.36067275      -1.35734796       1.36197351       0.00000000
Si      -2.71732417       2.71080261      -0.00172594       0.00000000
Si      -0.00025738       2.71384884      -2.71552443       0.00000000
Si      -2.71473406      -0.00120546      -2.71531732       0.00000000
Si       2.71464868      -0.00078192      -2.71573154       0.00000000
Si       2.71557721       2.71538010      -0.00082845       0.00000000
Si      -0.00018408      -2.71580853      -2.71552443       0.00000000
