10
Lattice="16.28999089631971 0.0 0.0 0.0 16.28999089631971 0.0 0.0 0.0 34.51877397758722" Properties=species:S:1:pos:R:3:initial_magmoms:R:1 pbc="T T T"
Si       0.42841071       1.16074395       1.98414024       0.00000000
Si       1.31483106       1.33675740      -1.41582282       0.00000000
Si       0.26826372      -2.35058836      -0.12236912       0.00000000
Si      -2.36172420       0.29396934      -0.04856794       0.00000000
Si      -2.42051481       0.97366959      -2.33195160       0.00000000
Si      -0.40664727       2.34857817      -2.62788121       0.00000000
Si      -3.09747834      -1.47545046       1.44972028       0.00000000
Si       0.20289195       3.45947472       1.39100381       0.00000000
Si      -1.32403491      -3.11310371       1.59335298       0.00000000
Si      -0.03388320      -2.86429188      -2.44558747       0.00000000
