10
Lattice="16.28999089631971 0.0 0.0 0.0 16.28999089631971 0.0 0.0 0.0 34.51877397758722" Properties=species:S:1:pos:R:3:initial_magmoms:R:1 pbc="T T T"
Si       1.31678586      -1.36506942      -1.39635423       0.00000000
Si       1.82296503       0.73466271       1.36615028       0.00000000
Si      -1.41266880       1.36304946      -1.37129358       0.00000000
Si      -1.03635351      -1.80426411       1.30729574       0.00000000
Si       0.22669164       0.25557381       3.22015467       0.00000000
Si       2.52134991      -2.78876655       0.05371124       0.00000000
Si       2.67321759      -0.01024641      -2.76143442       0.00000000
Si      -0.03606606       2.70176166      -2.76008819       0.00000000
Si      -0.03881907      -2.72847726      -2.75950137       0.00000000
Si      -2.75621913      -0.01389537      -2.75774091       0.00000000
