10
Lattice="16.28999089631971 0.0 0.0 0.0 16.28999089631971 0.0 0.0 0.0 34.51877397758722" Properties=species:S:1:pos:R:3:initial_magmoms:R:1 pbc="T T T"
Si      -1.82296503      -0.73466271      -1.36615028       0.00000000
Si      -1.59627339      -0.47908890       1.85400439       0.00000000
Si       0.93956991       2.01482865      -1.16694233       0.00000000
Si       1.08498309      -2.77382862       0.97515591       0.00000000
Si       0.12520494      -1.49090967       3.06606277       0.00000000
Si      -0.50617917      -2.09973213      -2.76250451       0.00000000
Si       2.20518774       0.62037207      -2.74838632       0.00000000
Si       3.36094370      -0.88865208      -1.37460739       0.00000000
Si       0.69838488      -3.52342926      -1.31243904       0.00000000
Si      -2.85931854      -2.53892682      -0.05885454       0.00000000
