10
Lattice="16.28999089631971 0.0 0.0 0.0 16.28999089631971 0.0 0.0 0.0 34.51877397758722" Properties=species:S:1:pos:R:3:initial_magmoms:R:1 pbc="T T T"
Si       0.22551876      -2.29873077       0.59313642       0.00000000
Si       1.90127597      -0.31257252      -1.47101838       0.00000000
Si       0.14144607       1.11237894       2.16156683       0.00000000
Si      -2.13192117       0.68119893      -0.99186301       0.00000000
Si       1.11193911      -2.12271732      -2.80682664       0.00000000
Si      -3.48229701      -1.21736799      -0.41187824       0.00000000
Si       3.54625874      -1.12974408       0.05657630       0.00000000
Si      -0.20289195      -3.45947472      -1.39100381       0.00000000
Si       2.39083836      -2.54327625       1.53549948       0.00000000
Si      -2.31531399       3.07413477      -0.69172210       0.00000000
