10
Lattice="16.28999089631971 0.0 0.0 0.0 16.28999089631971 0.0 0.0 0.0 34.51877397758722" Properties=species:S:1:pos:R:3:initial_magmoms:R:1 pbc="T T T"
Si       0.26539668      -0.59179941       2.24631047       0.00000000
Si       1.68384843       1.19957931      -1.17336282       0.00000000
Si      -1.29300246      -1.66653216      -1.11896120       0.00000000
Si       0.65668248       2.67463881       1.69438949       0.00000000
Si      -2.44875841      -0.15750801      -2.49274014       0.00000000
Si       2.15003565       0.98026704       2.59294819       0.00000000
Si       0.27406296       2.54619216      -2.50226732       0.00000000
Si      -0.70683939       1.31957145       3.30952382       0.00000000
Si       0.27253170      -2.88495900      -2.48845981       0.00000000
Si       3.00268683      -0.19267812      -2.49733114       0.00000000
