10
Lattice="16.28999089631971 0.0 0.0 0.0 16.28999089631971 0.0 0.0 0.0 34.51877397758722" Properties=species:S:1:pos:R:3:initial_magmoms:R:1 pbc="T T T"
Si       0.90481176       1.87463691      -1.12175722       0.00000000
Si      -1.94538438      -0.70534071      -1.21381885       0.00000000
Si       1.98656291      -1.36296801       0.27666813       0.00000000
Si       1.35861925       2.04879330       1.37671303       0.00000000
Si      -0.40500198      -1.98775467      -2.57278922       0.00000000
Si       2.15568895       0.10806786       2.49674432       0.00000000
Si      -2.26033524      -1.86554709       1.97985991       0.00000000
Si       2.34161975       0.73257759      -2.59201619       0.00000000
Si       1.04814276      -3.28342869      -1.00570504       0.00000000
Si      -3.72304692      -1.32320412       0.21115146       0.00000000
