10
Lattice="16.28999089631971 0.0 0.0 0.0 16.28999089631971 0.0 0.0 0.0 34.51877397758722" Properties=species:S:1:pos:R:3:initial_magmoms:R:1 pbc="T T T"
Si      -1.15575595       1.50902415      -1.37377893       0.00000000
Si       1.29300246       1.66653216       1.11896120       0.00000000
Si       1.56553416      -1.21842684      -1.36949860       0.00000000
Si      -2.51069113       0.14374296      -2.75297732       0.00000000
Si      -3.36094370       0.88865208       1.37460739       0.00000000
Si      -2.66255882      -2.63477718       0.06216835       0.00000000
Si       0.21012471      -2.57308695      -2.74786854       0.00000000
Si      -2.27596061      -1.88517654       2.34976330       0.00000000
Si      -2.42137378       2.90348073       0.20766506       0.00000000
Si       1.55839914       1.07473275       3.36527167       0.00000000
