10
Lattice="16.28999089631971 0.0 0.0 0.0 16.28999089631971 0.0 0.0 0.0 34.51877397758722" Properties=species:S:1:pos:R:3:initial_magmoms:R:1 pbc="T T T"
Si       1.42216654      -1.11461067      -1.60698790       0.00000000
Si      -1.31952258      -1.34874684       1.54292102       0.00000000
Si       1.22623857       1.34039007       1.68465519       0.00000000
Si      -1.05138918       2.13637064      -0.78616552       0.00000000
Si      -0.74924226       2.65007416       1.53705283       0.00000000
Si      -3.19148793       0.17627409       1.53329028       0.00000000
Si      -3.25672938       1.33498179      -0.54760614       0.00000000
Si       2.21923624      -3.05533611      -0.48695662       0.00000000
Si      -0.27816804      -1.01395476       3.71473994       0.00000000
Si       3.17030183       2.41748065       0.96114128       0.00000000
