10
Lattice="16.28999089631971 0.0 0.0 0.0 16.28999089631971 0.0 0.0 0.0 34.51877397758722" Properties=species:S:1:pos:R:3:initial_magmoms:R:1 pbc="T T T"
Si       1.85627808      -0.95607639      -1.06176356       0.00000000
Si      -1.77894945      -1.52863731      -0.26593278       0.00000000
Si       0.12746925       0.25692588       2.35431978       0.00000000
Si      -0.20709477       1.94543718      -1.52372857       0.00000000
Si       1.01744082       3.04265176       0.40514708       0.00000000
Si      -1.05704181       0.23415246      -3.24321322       0.00000000
Si       0.81492354      -1.29086847      -3.23358248       0.00000000
Si      -3.24171000      -0.61181982       1.39445569       0.00000000
Si      -0.05986575       2.60648701       2.50620247       0.00000000
Si      -1.73304423      -0.90038088       3.17172480       0.00000000
