10
Lattice="16.28999089631971 0.0 0.0 0.0 16.28999089631971 0.0 0.0 0.0 34.51877397758722" Properties=species:S:1:pos:R:3:initial_magmoms:R:1 pbc="T T T"
Si       1.99840833       1.09113678       0.43017320       0.00000000
Si      -0.18459828      -2.31226776       0.58281531       0.00000000
Si      -1.64045187       1.54157157       0.80805043       0.00000000
Si       0.34751457      -0.03210759      -2.38555928       0.00000000
Si      -1.59495390      -1.94566131       2.49287821       0.00000000
Si       1.58332284       1.89750807       2.58093565       0.00000000
Si      -2.79587225       0.12803940       2.28697361       0.00000000
Si      -0.26301834       3.15543816       1.83270629       0.00000000
Si      -1.20179475      -3.37134093      -1.33781035       0.00000000
Si       3.80641914      -0.22796226      -0.27124868       0.00000000
