10
Lattice="16.28999089631971 0.0 0.0 0.0 16.28999089631971 0.0 0.0 0.0 34.51877397758722" Properties=species:S:1:pos:R:3:initial_magmoms:R:1 pbc="T T T"
Si       1.35721764       1.35788553       1.35655406       0.00000000
Si      -1.35776987      -1.35757602       1.35676117       0.00000000
Si       1.35716877      -1.35553977      -1.36256033       0.00000000
Si      -1.35976051       1.36114353      -1.36142121       0.00000000
Si      -2.71423147      -2.71490769      -0.00100105       0.00000000
Si       2.71494027      -0.00013032       2.71438531       0.00000000
Si      -0.00042354      -2.71487511       2.71466146       0.00000000
Si      -2.71539727      -0.00063531       2.71455790       0.00000000
Si       2.71507059      -2.71494027       0.00013808       0.00000000
Si      -0.00039096       2.71521720       2.71514472       0.00000000
