10
Lattice="16.28999089631971 0.0 0.0 0.0 16.28999089631971 0.0 0.0 0.0 34.51877397758722" Properties=species:S:1:pos:R:3:initial_magmoms:R:1 pbc="T T T"
Si       1.35651717       1.34966138       1.37417935       0.00000000
Si      -1.35875379      -1.36484136       1.37569818       0.00000000
Si      -1.39750444       1.33011501      -1.39244670       0.00000000
Si       1.52184438      -1.19324250      -1.44964089       0.00000000
Si      -2.71253474      -2.70378162       0.00083535       0.00000000
Si      -2.71713032       2.70810566       0.01373848       0.00000000
Si       2.70914103       2.72206619      -0.00333452       0.00000000
Si       2.73370635      -2.70526401      -0.00950648       0.00000000
Si       0.00000000       2.70939257       2.73428884       0.00000000
Si      -2.71443711      -0.00587959       2.73432336       0.00000000
