10
Lattice="16.28999089631971 0.0 0.0 0.0 16.28999089631971 0.0 0.0 0.0 34.51877397758722" Properties=species:S:1:pos:R:3:initial_magmoms:R:1 pbc="T T T"
Si       1.33034891       1.36762695      -1.37315760       0.00000000
Si      -1.43680799       1.14205932       1.47025896       0.00000000
Si      -1.38066288      -1.34679204      -1.37105195       0.00000000
Si       1.44977090      -1.25400420       1.49790852       0.00000000
Si      -2.34161975      -0.73257759       2.59201619       0.00000000
Si      -0.35505684      -2.09554560       2.86868431       0.00000000
Si       2.69496221      -2.70676269      -0.00466004       0.00000000
Si       2.69268161       0.00975771      -2.73154115       0.00000000
Si       2.69893697       2.73336426      -0.00731798       0.00000000
Si      -0.02385019      -2.70744687      -2.73136855       0.00000000
