10
Lattice="16.290000149 0.0 0.0 0.0 16.290000149 0.0 0.0 0.0 29.1751946751" Properties=species:S:1:pos:R:3:initial_magmoms:R:1 pbc="T T T"
Si       1.12782187      -1.42061833      -1.46237746       0.00000000
Si      -1.54347751       1.31422834      -1.19834195       0.00000000
Si      -1.05252949      -1.77635936       1.17500179       0.00000000
Si       2.11745567       0.98396488       0.66819948       0.00000000
Si       0.19868913       0.80578486       3.37947950       0.00000000
Si       2.36641574      -2.76265371      -0.02984622       0.00000000
Si      -0.19925928       2.69358410      -2.51037963       0.00000000
Si      -1.40703247      -0.89560792       3.31100532       0.00000000
Si       2.50116662      -0.09809838      -2.75110416       0.00000000
Si       2.39409245       0.10652031       2.91769452       0.00000000
