10
Lattice="16.290000149 0.0 0.0 0.0 16.290000149 0.0 0.0 0.0 29.1751946751" Properties=species:S:1:pos:R:3:initial_magmoms:R:1 pbc="T T T"
Si       1.34495128       1.35488004      -1.36545746       0.00000000
Si      -1.35576784      -1.36242231      -1.35148254       0.00000000
Si       1.38973249      -1.34841291       1.33248949       0.00000000
Si      -1.38378664       1.35518955       1.33459011       0.00000000
Si       0.02746494      -2.69927746       2.68181307       0.00000000
Si      -0.02849121       2.72345182       2.67201020       0.00000000
Si      -2.70222432      -0.00193362      -2.70620353       0.00000000
Si       2.70495452      -0.00291265      -2.70454055       0.00000000
Si       2.71797023       2.70282868      -0.02263995       0.00000000
Si       2.70848945      -2.71675663      -0.05225277       0.00000000
