10
Lattice="16.290000149 0.0 0.0 0.0 16.290000149 0.0 0.0 0.0 29.1751946751" Properties=species:S:1:pos:R:3:initial_magmoms:R:1 pbc="T T T"
Si       1.72155980      -0.75821806      -1.37908228       0.00000000
Si       1.35839053       1.34543998       1.34170885       0.00000000
Si      -1.43795578       1.18649845      -1.44440554       0.00000000
Si      -1.19244104      -1.69326407       1.18900588       0.00000000
Si      -1.65931571      -0.67192993      -2.87390255       0.00000000
Si       0.64749493      -0.84598858      -3.47914197       0.00000000
Si       2.56598453      -2.60353298      -0.25484533       0.00000000
Si      -2.65296108      -0.41300037       2.53433246       0.00000000
Si      -0.08703747       2.53879652       2.69918456       0.00000000
Si       2.63744876      -0.15004719       2.67958467       0.00000000
