10
Lattice="16.290000149 0.0 0.0 0.0 16.290000149 0.0 0.0 0.0 29.1751946751" Properties=species:S:1:pos:R:3:initial_magmoms:R:1 pbc="T T T"
Si       1.03492000       1.10662858      -0.20515997       0.00000000
H       -0.53555004       1.54329832       1.79631674       0.00000000
Si      -2.22529547      -0.77037040      -1.13441909       0.00000000
Si      -0.98002270       0.26111241       2.46898002       0.00000000
Si       1.02853432      -1.11037528       2.39671307       0.00000000
Si      -0.55153054      -2.45698814      -1.38197062       0.00000000
Si      -0.19295505      -2.69902496       0.97938211       0.00000000
Si       2.19592460       0.94390777       1.81210052       0.00000000
Si       2.51442668       0.03070665      -1.64075460       0.00000000
Si      -0.21989871       2.74895382      -1.35758016       0.00000000
