10
Lattice="16.290000149 0.0 0.0 0.0 16.290000149 0.0 0.0 0.0 29.1751946751" Properties=species:S:1:pos:R:3:initial_magmoms:R:1 pbc="T T T"
Si      -2.30824415      -0.08720037       0.35663758       0.00000000
H       -0.90709237       1.56102184      -1.49753357       0.00000000
Si       0.97300171      -0.39838987      -2.15420885       0.00000000
Si       1.02449440       2.14944923       0.39313575       0.00000000
Si       0.05510907      -2.06604443       1.29024381       0.00000000
H       -2.92043865       1.21836169      -0.08530827       0.00000000
Si       2.84462499       1.26337096       1.54053780       0.00000000
Si       2.89222437      -1.45344757      -1.37400579       0.00000000
Si       3.53447391      -0.78507049       0.77509740       0.00000000
Si      -3.15504723      -1.74752606      -1.03954136       0.00000000
