10
Lattice="16.290000149 0.0 0.0 0.0 16.290000149 0.0 0.0 0.0 29.1751946751" Properties=species:S:1:pos:R:3:initial_magmoms:R:1 pbc="T T T"
Si       1.25832106       1.36876726      -1.42594347       0.00000000
Si       1.37479456      -1.26444610       1.41761979       0.00000000
Si      -0.80997139      -1.85938949      -1.18093194       0.00000000
Si      -1.42710175       1.37552761       1.29373608       0.00000000
Si      -2.68390784      -2.66188376       0.01495229       0.00000000
Si      -0.05247009      -2.65489535       2.69939988       0.00000000
Si       2.66219327      -2.71326242       0.08915648       0.00000000
Si       2.64732050       2.74756917      -0.08429297       0.00000000
Si      -0.08348625       2.74501164       2.65697914       0.00000000
Si      -0.19349262       2.78589954      -2.64324930       0.00000000
