10
Lattice="16.290000149 0.0 0.0 0.0 16.290000149 0.0 0.0 0.0 29.1751946751" Properties=species:S:1:pos:R:3:initial_magmoms:R:1 pbc="T T T"
Si      -1.30489417       1.38069154      -1.37587301       0.00000000
Si       1.37935250       1.36342414       1.33097238       0.00000000
Si       1.39689846      -1.33345054      -1.35148254       0.00000000
Si      -1.38122911      -1.33883113       1.38331268       0.00000000
Si       0.05836707      -2.66382522       2.65558457       0.00000000
Si      -2.67908600      -0.00257382      -2.68557667       0.00000000
Si      -2.62681139       2.75441097      -0.00274247       0.00000000
Si       0.02720430      -2.70195716      -2.68694790       0.00000000
Si      -2.61418664       0.09524763       2.79445850       0.00000000
Si       2.71316468       0.01661580       2.70955868       0.00000000
