10
Lattice="16.290000149 0.0 0.0 0.0 16.290000149 0.0 0.0 0.0 29.1751946751" Properties=species:S:1:pos:R:3:initial_magmoms:R:1 pbc="T T T"
H       -0.17891307       1.38743560       0.61072435       0.00000000
Si       0.83370592      -1.24440940       1.71349128       0.00000000
Si       1.89560216       0.01658322      -1.33873298       0.00000000
Si      -1.90061948      -0.54804122      -1.28563413       0.00000000
Si       0.64308034       1.12288600      -2.94336869       0.00000000
Si      -2.62985762       1.64222749      -0.88403757       0.00000000
Si      -0.69012586       2.66947490      -1.78566779       0.00000000
Si       1.87318712       0.60944311       2.66561792       0.00000000
Si       2.33118047      -2.27296001      -1.03615704       0.00000000
Si      -0.99864217      -2.26641143       2.65583548       0.00000000
