10
Lattice="16.290000149 0.0 0.0 0.0 16.290000149 0.0 0.0 0.0 29.1751946751" Properties=species:S:1:pos:R:3:initial_magmoms:R:1 pbc="T T T"
Si      -0.92734084       1.04379805      -1.83386521       0.00000000
Si       1.07123041       1.76016710       1.06331915       0.00000000
Si       1.33320619      -1.54658890      -1.15770090       0.00000000
Si      -1.93973177      -1.02724741       0.90163022       0.00000000
H        0.51121278      -1.28203930       2.39639214       0.00000000
Si       0.69012586      -2.66947490       1.78566779       0.00000000
Si      -1.69932395      -1.00168840      -2.71227197       0.00000000
Si      -0.47775312      -2.87283438      -1.76171496       0.00000000
Si      -2.22441581       2.54475866      -0.51287075       0.00000000
Si      -1.21049362      -3.21751612       0.50003366       0.00000000
