10
Lattice="16.290000149 0.0 0.0 0.0 16.290000149 0.0 0.0 0.0 29.1751946751" Properties=species:S:1:pos:R:3:initial_magmoms:R:1 pbc="T T T"
H       -0.60074263      -0.09166383      -1.39991337       0.00000000
Si      -1.71628184       0.44204544       1.52449145       0.00000000
Si       0.47749248      -2.03010869       1.05856359       0.00000000
H        1.51630579      -0.84440845      -1.70721569       0.00000000
Si       1.89933257       1.49978773       0.31812632       0.00000000
Si       0.79433299      -0.93178801      -3.02861861       0.00000000
Si      -2.56070657       2.28736037       0.40025450       0.00000000
Si      -0.33770799       1.47046573       3.15669771       0.00000000
Si       2.07181109      -1.21676527       2.61949485       0.00000000
Si       0.92694988       2.95393089       1.82972233       0.00000000
