10
Lattice="16.290000149 0.0 0.0 0.0 16.290000149 0.0 0.0 0.0 29.1751946751" Properties=species:S:1:pos:R:3:initial_magmoms:R:1 pbc="T T T"
Si      -1.33109012      -1.34782591       1.37196353       0.00000000
Si       1.33830496       1.34370891       1.39189019       0.00000000
Si       1.34444629      -1.36980112      -1.36108118       0.00000000
Si      -1.41377816       1.33099945      -1.33234362       0.00000000
Si       2.64481184       2.68896644      -0.03346395       0.00000000
Si      -2.68648867      -2.68924227      -0.01560873       0.00000000
Si      -0.06680529       2.68466588      -2.70830415       0.00000000
Si      -0.09751194       2.68106579       2.72869761       0.00000000
Si       2.70671384      -0.01893657      -2.71040476       0.00000000
Si      -2.75230956       0.00062477       2.67472350       0.00000000
