10
Lattice="16.290000149 0.0 0.0 0.0 16.290000149 0.0 0.0 0.0 29.1751946751" Properties=species:S:1:pos:R:3:initial_magmoms:R:1 pbc="T T T"
Si       1.21542949      -1.41490054       1.44972680       0.00000000
Si      -1.48732588      -1.25239150      -1.37546455       0.00000000
Si      -1.48170583       1.29881768       1.33966659       0.00000000
Si       1.61746669       1.48768752      -0.93830344       0.00000000
Si       2.55695987      -2.77027743       0.10546833       0.00000000
H        1.16756947      -1.10817613      -3.44626152       0.00000000
Si       0.88822855       3.67795623      -0.53670688       0.00000000
Si      -2.79782382      -2.61891074       0.11127419       0.00000000
H        3.06887313      -0.68628142      -2.20899986       0.00000000
Si      -0.18376749       2.58256124       2.84578350       0.00000000
