10
Lattice="16.290000149 0.0 0.0 0.0 16.290000149 0.0 0.0 0.0 29.1751946751" Properties=species:S:1:pos:R:3:initial_magmoms:R:1 pbc="T T T"
Si       1.42524469      -1.35984034      -1.27043385       0.00000000
Si       1.35663121       1.34941474       1.35428336       0.00000000
Si      -1.32465394      -1.38681658       1.38337103       0.00000000
Si      -1.33924978       1.33675741      -1.42179476       0.00000000
Si       0.03520269      -2.70480791      -2.54604922       0.00000000
Si      -2.68569974       2.61594596       0.03877383       0.00000000
Si       2.69785208       2.70308117      -0.03040055       0.00000000
Si       2.70260876      -0.03145599       2.70824580       0.00000000
Si       0.01251072       2.68040549       2.74071779       0.00000000
Si      -2.71117730      -0.06942798      -2.73420005       0.00000000
