10
Lattice="16.290000149 0.0 0.0 0.0 16.290000149 0.0 0.0 0.0 29.1751946751" Properties=species:S:1:pos:R:3:initial_magmoms:R:1 pbc="T T T"
Si      -0.51699736      -0.91020376      -2.09340774       0.00000000
Si       2.05757363       1.00885600       0.72345730       0.00000000
Si      -1.41437275       1.94935916       0.00481391       0.00000000
Si      -0.68063042      -1.76313188       1.50754066       0.00000000
H        1.45184626       1.57051891      -2.37865362       0.00000000
Si      -1.94357621      -0.33583464       2.83485330       0.00000000
H        2.85518091      -0.45898704      -1.92182842       0.00000000
Si       0.25515027       1.20461293      -3.26890551       0.00000000
Si       1.05008599       2.24917661       2.56657105       0.00000000
Si      -3.08390880       1.16509339       1.45158264       0.00000000
