10
Lattice="16.290000149 0.0 0.0 0.0 16.290000149 0.0 0.0 0.0 29.1751946751" Properties=species:S:1:pos:R:3:initial_magmoms:R:1 pbc="T T T"
Si      -2.23192550       0.50179716      -0.33023403       0.00000000
Si       0.89103043      -1.42346908       1.58969801       0.00000000
Si       0.53807499      -1.03014703      -2.01303008       0.00000000
Si       1.24743934       1.78277110      -0.84538044       0.00000000
H       -0.01736514      -1.49542201       2.80630363       0.00000000
Si       0.60518980       1.11439402      -2.99448363       0.00000000
Si       2.78182704      -0.08511525       1.97600676       0.00000000
Si       3.30449169       1.17623575       0.04866422       0.00000000
Si       1.16527258       1.44512338       3.05251309       0.00000000
Si      -1.06764661      -2.73153981      -2.08150426       0.00000000
