10
Lattice="16.290000149 0.0 0.0 0.0 16.290000149 0.0 0.0 0.0 29.1751946751" Properties=species:S:1:pos:R:3:initial_magmoms:R:1 pbc="T T T"
Si      -1.36018243      -1.36374994      -1.33006795       0.00000000
Si      -1.35107632       1.34495128       1.36376530       0.00000000
Si       1.33408585      -1.37432215       1.35702583       0.00000000
Si       1.33758820       1.35967744      -1.37984083       0.00000000
Si      -2.70492194       2.68063355      -0.01998501       0.00000000
Si       2.67656431      -0.01257588       2.71043394       0.00000000
Si       0.00509877      -2.70943427      -2.68105451       0.00000000
Si      -2.68967450       0.00431685      -2.70471560       0.00000000
Si       2.69157229       2.71231760      -0.02088944       0.00000000
Si       0.02016702       2.68177385       2.72893101       0.00000000
