10
Lattice="16.290000149 0.0 0.0 0.0 16.290000149 0.0 0.0 0.0 29.1751946751" Properties=species:S:1:pos:R:3:initial_magmoms:R:1 pbc="T T T"
Si      -1.34784163      -1.35404110       1.35658820       0.00000000
Si      -1.36903492       1.35669637      -1.34007504       0.00000000
Si       1.33140890      -1.35005005      -1.38935195       0.00000000
Si       1.31471165       1.36666585       1.39317390       0.00000000
Si       0.02952822       2.69125463      -2.67449010       0.00000000
Si       2.68499225      -2.70816365      -0.02990457       0.00000000
Si      -2.69292324       0.01088172       2.70608683       0.00000000
Si       2.69002586       2.71503803       0.04370444       0.00000000
Si      -2.71913385      -2.70231554       0.00253824       0.00000000
Si       2.71074674       0.01787013       2.71673578       0.00000000
