10
Lattice="16.290000149 0.0 0.0 0.0 16.290000149 0.0 0.0 0.0 29.1751946751" Properties=species:S:1:pos:R:3:initial_magmoms:R:1 pbc="T T T"
Si       1.33361344       1.33987695      -1.32908475       0.00000000
Si      -1.33002964       1.41963279       1.28674279       0.00000000
Si       1.43399242      -1.34658843       1.26168129       0.00000000
Si      -1.36054081      -1.28273638      -1.41020929       0.00000000
Si       0.05444118      -2.69054602       2.59670903       0.00000000
Si      -2.67846698       0.04543607       2.62375443       0.00000000
Si       2.78045868       0.04181317       2.60088108       0.00000000
Si       0.05527197       2.77036702       2.61205518       0.00000000
Si      -2.71041167      -2.67790498      -0.09972082       0.00000000
Si      -0.04020372      -2.77173538      -2.61877714       0.00000000
