10
Lattice="16.290000149 0.0 0.0 0.0 16.290000149 0.0 0.0 0.0 29.1751946751" Properties=species:S:1:pos:R:3:initial_magmoms:R:1 pbc="T T T"
Si       1.23673681      -1.39132891       1.37234281       0.00000000
Si      -1.37367055       1.33294555       1.33456093       0.00000000
Si      -1.29285586      -1.43713639      -1.31186263       0.00000000
Si       1.46109898       1.29717271      -1.30115533       0.00000000
Si       2.67864617      -0.06516000       2.58419287       0.00000000
Si      -2.64917756      -0.07317468      -2.64928273       0.00000000
Si       0.09534537       2.62045829      -2.68172554       0.00000000
Si       0.00959481       2.67920003       2.63323637       0.00000000
Si      -2.59936274      -2.78239393       0.11349151       0.00000000
Si      -2.71531496       2.70283682       0.03031303       0.00000000
