10
Lattice="16.290000149 0.0 0.0 0.0 16.290000149 0.0 0.0 0.0 29.1751946751" Properties=species:S:1:pos:R:3:initial_magmoms:R:1 pbc="T T T"
Si      -1.37003788       1.34677576       1.33922896       0.00000000
Si      -1.38530161      -1.35073423      -1.32531239       0.00000000
Si       1.36340785      -1.36550926       1.33537784       0.00000000
Si       1.37064061       1.35738055      -1.33887886       0.00000000
Si       0.00775404       2.68323995       2.68487647       0.00000000
Si      -0.05527197      -2.77036702      -2.61205518       0.00000000
Si      -0.00057015      -2.71374135       2.68505152       0.00000000
Si       2.69791724      -0.00130320      -2.70544498       0.00000000
Si      -2.72072324      -0.01918962       2.69359985       0.00000000
Si      -2.71647155       2.70431921      -0.03077983       0.00000000
