10
Lattice="16.290000149 0.0 0.0 0.0 16.290000149 0.0 0.0 0.0 29.1751946751" Properties=species:S:1:pos:R:3:initial_magmoms:R:1 pbc="T T T"
Si      -1.32147739      -1.32569650       1.36542945       0.00000000
Si       1.26294579      -1.42729723      -1.32731264       0.00000000
Si      -1.14033259       1.50092803      -1.38327067       0.00000000
Si       1.50637378       1.38522016       1.16745825       0.00000000
Si       1.94357621       0.33583464      -2.83485330       0.00000000
H       -2.32125986       0.96272272      -2.43529901       0.00000000
Si       0.52920346       2.28519380      -2.83003940       0.00000000
Si       0.10604790       2.73473265       2.53661513       0.00000000
Si       0.12875950      -2.71033022       2.59180001       0.00000000
Si      -2.57957039       0.07537383       2.73000582       0.00000000
