10
Lattice="16.290000149 0.0 0.0 0.0 16.290000149 0.0 0.0 0.0 29.1751946751" Properties=species:S:1:pos:R:3:initial_magmoms:R:1 pbc="T T T"
Si       1.91922266      -1.05505770       0.78020306       0.00000000
Si      -1.25245666      -1.32339798      -1.46794992       0.00000000
Si       1.16274763       1.43800139      -1.50406881       0.00000000
Si      -0.97300171       0.39838987       2.15420885       0.00000000
H       -1.88009408       1.95941172       0.65667528       0.00000000
Si       0.05149269       2.54783910       2.54734460       0.00000000
Si      -2.59887404      -2.61421759      -0.09671577       0.00000000
Si       3.66798675      -0.72737783      -0.71085362       0.00000000
Si       2.60465699       2.76417030      -0.29221875       0.00000000
Si       2.68496669       0.12265067      -2.70168138       0.00000000
