10
Lattice="16.290000149 0.0 0.0 0.0 16.290000149 0.0 0.0 0.0 29.1751946751" Properties=species:S:1:pos:R:3:initial_magmoms:R:1 pbc="T T T"
H       -0.06986781      -1.07567758      -1.06113101       0.00000000
Si       2.19624877       0.18870336       0.66043888       0.00000000
Si      -1.61912827      -0.67515535       1.56495744       0.00000000
Si      -0.44830080       2.13482081      -0.88917241       0.00000000
H       -1.89035678       2.42442443      -0.44818934       0.00000000
H        1.08278491       0.73109521      -2.98689808       0.00000000
Si      -3.15276663      -1.39781233      -0.04513403       0.00000000
H       -1.28153431      -3.24020809       0.68118245       0.00000000
Si       2.99226126      -2.07244640       0.44600120       0.00000000
Si       3.51091857      -0.07895763      -1.25111987       0.00000000
