10
Lattice="16.290000149 0.0 0.0 0.0 16.290000149 0.0 0.0 0.0 29.1751946751" Properties=species:S:1:pos:R:3:initial_magmoms:R:1 pbc="T T T"
Si       1.19998120      -1.29952499      -1.60694055       0.00000000
Si      -1.28538901       1.35234694      -1.49960501       0.00000000
Si      -1.43773310      -1.42638662       1.33911226       0.00000000
Si       1.31763572       1.70277743       1.13961228       0.00000000
H        2.83122434       0.23530905       0.50601458       0.00000000
H        0.18043896       2.66892104       1.42958454       0.00000000
H       -0.97221376       0.86214826       3.35535161       0.00000000
Si      -2.62664247      -2.58381573      -0.35754201       0.00000000
Si       3.44341884      -1.07025301       0.94796043       0.00000000
Si       2.59661576      -2.73057869      -0.44821852       0.00000000
