10
Lattice="16.290000149 0.0 0.0 0.0 16.290000149 0.0 0.0 0.0 29.1751946751" Properties=species:S:1:pos:R:3:initial_magmoms:R:1 pbc="T T T"
Si       1.15706242      -0.55208440       0.81229577       0.00000000
H       -1.01348236       0.47361546      -1.33295629       0.00000000
H        0.29320371       2.08002125      -0.86419844       0.00000000
H        0.50196006       0.89130736      -2.14560217       0.00000000
H       -0.65862100       0.12181662       2.37068879       0.00000000
Si      -1.95914945       0.55816057       1.72346627       0.00000000
Si      -1.73164331      -0.26917596      -2.41626045       0.00000000
Si       2.46325979      -1.62564427      -0.82673749       0.00000000
Si      -1.70396660       2.59999805       0.53128029       0.00000000
Si       0.43087050      -2.40839507       2.20780368       0.00000000
