10
Lattice="16.290000149 0.0 0.0 0.0 16.290000149 0.0 0.0 0.0 29.1751946751" Properties=species:S:1:pos:R:3:initial_magmoms:R:1 pbc="T T T"
Si       1.31673700       1.36900866      -1.34631853       0.00000000
Si      -1.27060372       1.46278321       1.33911226       0.00000000
Si       1.26734572      -1.43097877       1.38456721       0.00000000
Si      -1.37606518      -1.51783705      -1.26702035       0.00000000
H       -2.16461522      -1.75368368       0.03816115       0.00000000
Si      -2.56782530       0.05005917       2.64228068       0.00000000
H       -1.95585887      -2.94239757      -1.24324257       0.00000000
Si       2.55601994       2.74707395       0.08971372       0.00000000
Si      -0.12285918       2.69400276      -2.61859042       0.00000000
Si       2.60358185      -2.72820035      -0.04472557       0.00000000
