10
Lattice="16.290000149 0.0 0.0 0.0 16.290000149 0.0 0.0 0.0 29.1751946751" Properties=species:S:1:pos:R:3:initial_magmoms:R:1 pbc="T T T"
Si      -1.34641738      -1.29081961       1.37123415       0.00000000
Si       1.25245666       1.32339798       1.46794992       0.00000000
Si       1.36239787      -1.36775728      -1.34821492       0.00000000
Si      -1.42089526       1.37033436      -1.29497019       0.00000000
Si       2.41520429       2.76139938      -0.03611889       0.00000000
Si       2.70661610       0.01159848      -2.66025260       0.00000000
Si      -0.04258206      -2.69658146      -2.70273168       0.00000000
Si      -0.11438838       2.71559189      -2.72032433       0.00000000
Si      -2.75820654      -2.68672601       0.07322974       0.00000000
Si      -2.75920023       0.02662545      -2.68686038       0.00000000
