10
Lattice="16.290000149 0.0 0.0 0.0 16.290000149 0.0 0.0 0.0 29.1751946751" Properties=species:S:1:pos:R:3:initial_magmoms:R:1 pbc="T T T"
Si      -0.71816095      -0.74279143      -1.08330415       0.00000000
H        1.01348236      -0.47361546       1.33295629       0.00000000
H        1.51544242       0.41769189      -0.81264587       0.00000000
H        1.30668607       1.60640578       0.46875785       0.00000000
Si      -0.69048424       2.12638259       1.86423659       0.00000000
Si       2.09523611       1.84225241      -0.83642366       0.00000000
Si      -2.56978010      -1.56641383       0.03474766       0.00000000
Si      -0.96712102       3.00382716      -0.38525845       0.00000000
Si       0.74674990      -2.12846771      -2.24984514       0.00000000
Si      -0.94566709       0.08454510       3.05642257       0.00000000
