10
Lattice="16.290000149 0.0 0.0 0.0 16.290000149 0.0 0.0 0.0 29.1751946751" Properties=species:S:1:pos:R:3:initial_magmoms:R:1 pbc="T T T"
Si       1.83234809       1.02200203      -0.94234420       0.00000000
Si       1.40644603      -1.36391284       1.25402281       0.00000000
Si      -1.32033709       1.48899900       1.20856785       0.00000000
Si      -1.30401451      -1.18421785      -1.55343937       0.00000000
Si       0.99864217       2.26641143      -2.65583548       0.00000000
Si      -2.67020795       0.09383040       2.51905633       0.00000000
Si      -2.62532900      -2.58742217      -0.21037941       0.00000000
Si       0.05088996      -2.70444953       2.56920849       0.00000000
Si       2.74437633      -2.51818967      -0.30280059       0.00000000
Si       2.82830241       0.09596439       2.47923219       0.00000000
