10
Lattice="16.290000149 0.0 0.0 0.0 16.290000149 0.0 0.0 0.0 29.1751946751" Properties=species:S:1:pos:R:3:initial_magmoms:R:1 pbc="T T T"
Si       1.29722158       1.41272404      -1.30316842       0.00000000
Si      -1.02294685       1.62188128       1.31483850       0.00000000
Si       1.53701038      -0.99909829       1.50050944       0.00000000
Si      -1.59396022      -1.28376604      -1.20864079       0.00000000
H        0.40321008      -1.80374285      -2.60411953       0.00000000
Si       2.48613095       2.57015314       0.39348585       0.00000000
Si      -1.54561150       0.36053028       3.24218103       0.00000000
Si       2.56782530      -0.05005917      -2.64228068       0.00000000
Si       3.06206391       0.84246994       1.92168255       0.00000000
Si       0.38929842      -1.12835944       3.55867355       0.00000000
