10
Lattice="16.290000149 0.0 0.0 0.0 16.290000149 0.0 0.0 0.0 29.1751946751" Properties=species:S:1:pos:R:3:initial_magmoms:R:1 pbc="T T T"
Si      -1.33533823      -1.37632582      -1.34520988       0.00000000
Si       1.34299160      -1.35710362       1.36443633       0.00000000
Si       1.33106732       1.35801586      -1.38275835       0.00000000
Si      -1.38812467       1.36083403       1.32283250       0.00000000
Si      -2.66548874       0.03244968      -2.65584715       0.00000000
Si      -0.03414058       2.71347419       2.68178389       0.00000000
Si       2.69198280       2.71199180      -0.02929190       0.00000000
Si       2.69089137       0.00461007       2.71521867       0.00000000
Si       2.70156132      -2.71288775       0.01012379       0.00000000
Si      -2.72571287       0.00115659       2.70267333       0.00000000
