10
Lattice="16.290000149 0.0 0.0 0.0 16.290000149 0.0 0.0 0.0 29.1751946751" Properties=species:S:1:pos:R:3:initial_magmoms:R:1 pbc="T T T"
Si      -1.44542800       1.19335654       1.35747571       0.00000000
Si      -1.35839053      -1.34543998      -1.34170885       0.00000000
Si       1.27905823      -1.49548717       1.33787582       0.00000000
Si       1.31049793       1.36651924      -1.48673875       0.00000000
Si       2.16121061      -0.50777559      -2.60248572       0.00000000
Si       0.36316926      -2.10365804      -2.72079113       0.00000000
Si      -0.01897785       2.55293624       2.63696788       0.00000000
Si      -2.80295354       2.43564824      -0.09904979       0.00000000
Si       2.69193881      -0.19919412       2.68151257       0.00000000
Si      -2.79118890      -0.26845920       2.59105779       0.00000000
