10
Lattice="16.290000149 0.0 0.0 0.0 16.290000149 0.0 0.0 0.0 29.1751946751" Properties=species:S:1:pos:R:3:initial_magmoms:R:1 pbc="T T T"
Si       1.41983641       1.31276224       1.31124995       0.00000000
Si       1.37914399      -1.34612416      -1.32294920       0.00000000
Si      -1.34475580      -1.35223291       1.36341520       0.00000000
Si      -1.36163224       1.39514077      -1.30541491       0.00000000
Si       0.05574438       2.68837130       2.57109321       0.00000000
Si       0.00874773      -2.70751205      -2.64998293       0.00000000
Si      -2.71559189       0.04144176      -2.66602929       0.00000000
Si       2.73155610       0.04478121      -2.65033303       0.00000000
Si       0.01353699       2.73769743      -2.64773644       0.00000000
Si      -2.72233595      -2.69254154       0.02646190       0.00000000
