10
Lattice="16.290000149 0.0 0.0 0.0 16.290000149 0.0 0.0 0.0 29.1751946751" Properties=species:S:1:pos:R:3:initial_magmoms:R:1 pbc="T T T"
H       -0.61219450       1.30556206      -0.44194585       0.00000000
Si      -0.84680308      -1.66032569      -1.39617894       0.00000000
Si       2.30824415       0.08720037      -0.35663758       0.00000000
Si      -0.75311929      -0.58338400       2.15590101       0.00000000
H        1.40115178       1.64822221      -1.85417115       0.00000000
Si       2.36335322      -1.97884406       0.93360623       0.00000000
Si      -2.24343764      -0.22927198      -2.55490097       0.00000000
Si      -2.12578312       2.77303044       0.19165185       0.00000000
Si       1.31518945      -1.30571845       3.00306114       0.00000000
Si       0.48796695       2.54259209      -2.65975662       0.00000000
