10
Lattice="16.290000149 0.0 0.0 0.0 16.290000149 0.0 0.0 0.0 29.1751946751" Properties=species:S:1:pos:R:3:initial_magmoms:R:1 pbc="T T T"
Si       1.35389775       1.35594703      -1.34798152       0.00000000
Si       1.35904539      -1.33879366       1.37129250       0.00000000
Si      -1.31452531       1.39681864       1.35775521       0.00000000
Si      -1.36022106      -1.37542987      -1.34270081       0.00000000
Si      -2.64560680      -0.01904301       2.64528573       0.00000000
Si       2.65608778      -2.69619050      -0.04767227       0.00000000
Si      -0.04213734       2.70474275      -2.67154340       0.00000000
Si       2.67389275      -0.00943191      -2.73079822       0.00000000
Si      -2.70469063      -0.01596420      -2.70812910       0.00000000
Si       2.71640965       2.71625978       0.01228276       0.00000000
