10
Lattice="16.290000149 0.0 0.0 0.0 16.290000149 0.0 0.0 0.0 29.1751946751" Properties=species:S:1:pos:R:3:initial_magmoms:R:1 pbc="T T T"
Si       0.15340293      -0.79597828      -1.27583126       0.00000000
H       -1.40333464       2.02950596      -0.45682520       0.00000000
Si       0.92103661      -0.16262307       2.54162626       0.00000000
H       -1.29487582      -2.67312386       0.43424360       0.00000000
Si      -2.05750847      -0.71887771      -2.08313808       0.00000000
Si       1.01548603      -2.87309991      -0.48325792       0.00000000
Si      -0.79760728       1.46784304       2.64528573       0.00000000
Si       2.79122637       0.73407628       1.26465716       0.00000000
Si       0.87174307      -2.45685782       1.87517729       0.00000000
Si       1.23494491       0.37028799      -2.98091717       0.00000000
