10
Lattice="16.290000149 0.0 0.0 0.0 16.290000149 0.0 0.0 0.0 29.1751946751" Properties=species:S:1:pos:R:3:initial_magmoms:R:1 pbc="T T T"
Si       0.17891307      -1.38743560      -0.61072435       0.00000000
Si      -0.69514318       1.82821043       1.92127701       0.00000000
Si      -0.51121278       1.28203930      -2.39639214       0.00000000
Si      -2.53421903       0.94670965       0.73514489       0.00000000
Si      -2.45094455       0.25479189      -1.49476192       0.00000000
Si       1.21259503       2.61860123       0.79894520       0.00000000
Si       2.05210019      -0.77799249       2.05489357       0.00000000
Si       1.01261899      -2.63184500       1.10276693       0.00000000
Si       2.91786483       0.94996765       0.67224783       0.00000000
Si       2.07451523      -1.37085238      -1.94945733       0.00000000
