10
Lattice="16.290000149 0.0 0.0 0.0 16.290000149 0.0 0.0 0.0 29.1751946751" Properties=species:S:1:pos:R:3:initial_magmoms:R:1 pbc="T T T"
Si      -0.64560529       0.84391975      -1.07691479       0.00000000
Si       2.14951439       0.25313031       1.31422582       0.00000000
Si       2.25968366      -1.47818719      -0.49087265       0.00000000
Si       0.38934729       1.22209210       2.57584876       0.00000000
Si      -2.07848999       2.06589782       0.21149099       0.00000000
Si       0.41772447      -2.64762839      -1.49554965       0.00000000
Si      -2.08751465      -0.48224916      -2.28876485       0.00000000
Si      -0.68879008      -2.30693118       2.14461021       0.00000000
Si      -1.37863900      -0.25848972       2.91005062       0.00000000
Si       0.85597435       2.20576376      -2.23782496       0.00000000
