10
Lattice="16.290000149 0.0 0.0 0.0 16.290000149 0.0 0.0 0.0 29.1751946751" Properties=species:S:1:pos:R:3:initial_magmoms:R:1 pbc="T T T"
Si       0.92734084      -1.04379805       1.83386521       0.00000000
Si      -0.77198311      -2.04548645      -0.87840676       0.00000000
Si      -1.29707497       1.50096061       1.32099446       0.00000000
Si       1.99223444       0.59803849      -1.17147159       0.00000000
H       -0.25826166       2.68666085      -1.44478482       0.00000000
Si      -0.15809445      -1.53054325      -3.06030287       0.00000000
Si       2.26054703      -2.59038695       0.67616431       0.00000000
Si      -1.01239093      -2.07104546       2.73549543       0.00000000
Si       1.99857125       0.71636905       2.89718436       0.00000000
Si       0.29724363       2.31430403       2.88192573       0.00000000
