10
Lattice="16.290000149 0.0 0.0 0.0 16.290000149 0.0 0.0 0.0 29.1751946751" Properties=species:S:1:pos:R:3:initial_magmoms:R:1 pbc="T T T"
Si      -1.36730116      -1.35019666       1.35042348       0.00000000
Si       1.30468240       1.29502243       1.47564342       0.00000000
Si      -1.37153656       1.41204979      -1.30394448       0.00000000
Si       1.36350559      -1.34763913      -1.39084863       0.00000000
Si       2.66023847       2.63555912       0.16045774       0.00000000
Si       2.71195922      -2.71005329      -0.01405953       0.00000000
Si      -0.01619226      -2.66910023       2.75862260       0.00000000
Si      -2.72994338       0.02331099       2.69998046       0.00000000
Si      -2.71091666      -2.71968068      -0.01281958       0.00000000
Si      -2.78441715       0.11575674      -2.64758123       0.00000000
