10
Lattice="16.290000149 0.0 0.0 0.0 16.290000149 0.0 0.0 0.0 29.1751946751" Properties=species:S:1:pos:R:3:initial_magmoms:R:1 pbc="T T T"
Si       1.40797729      -1.18084582      -1.47034229       0.00000000
Si      -1.31580684      -1.42695514       1.34678534       0.00000000
Si      -1.84013796       1.17505310      -0.93264345       0.00000000
Si       1.44664975       1.44148745       1.27530611       0.00000000
H        0.80241283       2.59906952      -1.44706048       0.00000000
Si      -0.47887713       2.55982691      -2.26732108       0.00000000
Si      -2.77206933       1.98992126       1.06229801       0.00000000
Si      -2.48706681       0.16469907       2.63303214       0.00000000
Si      -0.13338252      -2.49338000      -2.65999002       0.00000000
Si       2.79764463      -2.49608414      -0.04090362       0.00000000
