10
Lattice="16.290000149 0.0 0.0 0.0 16.290000149 0.0 0.0 0.0 29.1751946751" Properties=species:S:1:pos:R:3:initial_magmoms:R:1 pbc="T T T"
Si      -1.28303299      -1.40102146      -1.32930939       0.00000000
Si       1.41701824      -1.22297176       1.37607723       0.00000000
Si      -1.33623613       1.29722158       1.42929279       0.00000000
Si       1.46645839       1.38323278      -1.21622634       0.00000000
Si       2.07617681       0.65738296       2.67142670       0.00000000
Si       0.42987681       2.31671495       2.57441918       0.00000000
Si      -2.55210545      -0.00851967      -2.70439467       0.00000000
Si      -2.60358185       2.72820035       0.04472557       0.00000000
Si      -2.59814099      -2.73114884       0.12034768       0.00000000
Si       0.13437458       2.74875834      -2.60435293       0.00000000
