10
Lattice="16.290000149 0.0 0.0 0.0 16.290000149 0.0 0.0 0.0 29.1751946751" Properties=species:S:1:pos:R:3:initial_magmoms:R:1 pbc="T T T"
H       -1.15706242       0.55208440      -0.81229577       0.00000000
Si       1.30619737      -1.07355988      -1.63903326       0.00000000
Si       1.27920484       1.66301354       1.17234685       0.00000000
Si      -0.72619192      -1.85631068       1.39550791       0.00000000
H       -1.81568342       0.67390102       1.55839302       0.00000000
H        1.49910355      -1.08594028       2.52992701       0.00000000
H       -2.17054478       1.02569986      -2.14525206       0.00000000
H       -0.86385871       2.63210564      -1.67649421       0.00000000
H       -0.65510236       1.44339175      -2.95789794       0.00000000
Si      -3.11621187       1.11024496       0.91117050       0.00000000
