10
Lattice="16.290000149 0.0 0.0 0.0 16.290000149 0.0 0.0 0.0 29.1751946751" Properties=species:S:1:pos:R:3:initial_magmoms:R:1 pbc="T T T"
Si       1.34153038      -1.35537688      -1.34425847       0.00000000
Si       1.30401451       1.18421785       1.55343937       0.00000000
Si      -1.32131449      -1.40320432       1.34305996       0.00000000
Si      -1.21542949       1.41490054      -1.44972680       0.00000000
Si      -0.16242759      -2.64109772      -2.62977590       0.00000000
Si       0.40203720       2.90258806      -2.38803024       0.00000000
Si      -2.70322778      -0.04676859       2.66764005       0.00000000
Si      -2.69713532       2.71371822      -0.11006021       0.00000000
Si      -2.73419507      -2.69949737      -0.00057679       0.00000000
Si      -0.01632258       2.67321685       2.76200722       0.00000000
