10
Lattice="16.290000149 0.0 0.0 0.0 16.290000149 0.0 0.0 0.0 29.1751946751" Properties=species:S:1:pos:R:3:initial_magmoms:R:1 pbc="T T T"
Si       0.78855004       0.23584662      -1.30518151       0.00000000
H        0.20875635      -1.18871389      -1.28140373       0.00000000
H       -1.30668607      -1.60640578      -0.46875785       0.00000000
H       -0.29320371      -2.08002125       0.86419844       0.00000000
Si      -1.99717031       0.51997680       1.39547874       0.00000000
Si       2.16461522       1.75368368      -0.03816115       0.00000000
Si      -2.27380709       1.39742137      -0.85401630       0.00000000
Si      -0.66785743       1.45940482      -2.65587632       0.00000000
Si      -0.40321008       1.80374285       2.60411953       0.00000000
Si       0.86385871      -2.63210564       1.67649421       0.00000000
