10
Lattice="16.290000149 0.0 0.0 0.0 16.290000149 0.0 0.0 0.0 29.1751946751" Properties=species:S:1:pos:R:3:initial_magmoms:R:1 pbc="T T T"
Si      -1.22911309       1.85204270       0.66551537       0.00000000
Si      -1.53363835      -0.72265699      -1.61009147       0.00000000
Si       1.61912827       0.67515535      -1.56495744       0.00000000
Si       0.07252308      -1.46085463       1.93320675       0.00000000
H        0.33759396      -2.56505275      -0.88377500       0.00000000
H        0.06753834       2.40095054       1.58844347       0.00000000
H        1.54926046      -0.40052223      -2.62608845       0.00000000
Si      -2.75359647      -2.04219587      -0.11311223       0.00000000
H       -0.27122850       3.09957978      -2.01314678       0.00000000
Si       2.31819734      -1.96719671       2.21066285       0.00000000
