10
Lattice="16.290000149 0.0 0.0 0.0 16.290000149 0.0 0.0 0.0 29.1751946751" Properties=species:S:1:pos:R:3:initial_magmoms:R:1 pbc="T T T"
Si       1.36000324      -1.35779269      -1.33908309       0.00000000
Si       1.37301895       1.34794864       1.34281751       0.00000000
Si      -1.34495128      -1.35488004       1.36545746       0.00000000
Si      -1.33009480       1.36976095      -1.37237198       0.00000000
Si       0.00260640       2.70451469       2.67621143       0.00000000
Si       2.70844058       0.01640403      -2.67609473       0.00000000
Si       0.04478121      -2.70329294       2.69794695       0.00000000
Si       0.00438201      -2.72916147      -2.67790359       0.00000000
Si      -2.68866452       2.72554508      -0.01805945       0.00000000
Si      -2.70071912      -2.71730234       0.01397492       0.00000000
