10
Lattice="16.290000149 0.0 0.0 0.0 16.290000149 0.0 0.0 0.0 29.1751946751" Properties=species:S:1:pos:R:3:initial_magmoms:R:1 pbc="T T T"
Si      -1.37041255       1.35656605       1.33339392       0.00000000
Si      -1.37301895      -1.34794864      -1.34281751       0.00000000
Si       1.35068536       1.36596538      -1.35437089       0.00000000
Si       1.36852291      -1.34500015       1.36332767       0.00000000
Si      -0.00193851       2.71425611       2.66220734       0.00000000
Si      -0.01301571      -2.70574133      -2.68190060       0.00000000
Si       2.72072324       0.01918962      -2.69359985       0.00000000
Si       2.72015309      -2.69455173      -0.00854833       0.00000000
Si      -2.70311375       0.02181231      -2.71518949       0.00000000
Si      -2.71797023      -2.70282868       0.02263995       0.00000000
