10
Lattice="16.290000149 0.0 0.0 0.0 16.290000149 0.0 0.0 0.0 29.1751946751" Properties=species:S:1:pos:R:3:initial_magmoms:R:1 pbc="T T T"
Si       0.06986781       1.07567758       1.06113101       0.00000000
H        1.15265272       1.80677279      -1.92576707       0.00000000
Si      -2.45333918      -1.39398418      -1.03131396       0.00000000
H       -1.21166650      -2.16453051       1.74231345       0.00000000
Si      -1.54926046       0.40052223       2.62608845       0.00000000
Si      -0.46551933      -2.28853488      -2.01623935       0.00000000
Si       2.26611658       1.26438094       1.72156989       0.00000000
Si      -0.37843299       3.21049839       0.17195860       0.00000000
Si      -3.08289882      -0.32213475       1.01599698       0.00000000
Si       2.28984948       0.84062917      -2.21573933       0.00000000
