10
Lattice="16.290000149 0.0 0.0 0.0 16.290000149 0.0 0.0 0.0 29.1751946751" Properties=species:S:1:pos:R:3:initial_magmoms:R:1 pbc="T T T"
Si      -1.40272768       1.16985007      -1.46112292       0.00000000
Si      -1.45918882      -1.17874441       1.41691083       0.00000000
Si       1.46052004      -1.28026369      -1.34532658       0.00000000
Si       1.22016271       1.48998115       1.39843418       0.00000000
H       -2.30488418       1.91158265      -0.48389978       0.00000000
Si       2.65296108       0.41300037      -2.53433246       0.00000000
Si      -0.07121565      -2.53887797       2.77353405       0.00000000
Si      -2.85463910      -2.49997745       0.05131917       0.00000000
Si       2.60572008       0.15009606       2.77039188       0.00000000
Si      -0.25014501       2.81002503      -2.64061769       0.00000000
