10
Lattice="16.290000149 0.0 0.0 0.0 16.290000149 0.0 0.0 0.0 29.1751946751" Properties=species:S:1:pos:R:3:initial_magmoms:R:1 pbc="T T T"
Si      -1.23186610       1.20098580       1.59607279       0.00000000
Si      -1.94207753      -0.85208104      -1.06192399       0.00000000
Si       1.30074022      -1.53002197       1.31810904       0.00000000
Si       1.47800067       1.30737742      -1.37295257       0.00000000
H       -0.86402161      -2.56678274      -1.85142576       0.00000000
Si      -2.64868886       2.54415756       0.34152483       0.00000000
Si       2.64926064      -0.28427679      -2.65919938       0.00000000
Si       2.82459643       2.52072928       0.10898977       0.00000000
Si      -3.68817006       0.69030505      -0.61060181       0.00000000
Si       2.69132794      -0.24304680       2.75271171       0.00000000
