10
Lattice="16.290000149 0.0 0.0 0.0 16.290000149 0.0 0.0 0.0 29.1751946751" Properties=species:S:1:pos:R:3:initial_magmoms:R:1 pbc="T T T"
Si       1.33546236      -1.35892810       1.36656612       0.00000000
Si      -1.35398409      -1.35264016      -1.35895139       0.00000000
Si      -1.32832035       1.34803009       1.39299884       0.00000000
Si       1.36004397       1.35337321      -1.35892222       0.00000000
Si       2.68798849       0.02726946       2.68802739       0.00000000
Si      -2.67278992       2.70749576       0.02757056       0.00000000
Si       0.03414058      -2.71347419      -2.68178389       0.00000000
Si      -2.69157229      -2.71231760       0.02088944       0.00000000
Si      -2.69996164       0.02823057      -2.71291383       0.00000000
Si       2.70579346       2.71402805       0.00490143       0.00000000
