10
Lattice="16.290000149 0.0 0.0 0.0 16.290000149 0.0 0.0 0.0 29.1751946751" Properties=species:S:1:pos:R:3:initial_magmoms:R:1 pbc="T T T"
Si       1.81095932       1.32624548       0.60401406       0.00000000
Si      -0.73274050      -0.34468174       2.26174862       0.00000000
Si      -1.22157082       1.87114598      -0.95055702       0.00000000
Si       1.61655445      -1.53023863      -1.07650633       0.00000000
H        0.71866594      -2.51865068       0.99105219       0.00000000
H       -1.18263772      -2.94054539      -0.24620947       0.00000000
Si      -0.27424215      -2.86859246      -1.46281509       0.00000000
Si       0.47775312       2.87283438       1.76171496       0.00000000
Si      -1.46197864       1.84558697       2.66334517       0.00000000
Si      -1.16527258      -1.44512338      -3.05251309       0.00000000
