10
Lattice="16.290000149 0.0 0.0 0.0 16.290000149 0.0 0.0 0.0 29.1751946751" Properties=species:S:1:pos:R:3:initial_magmoms:R:1 pbc="T T T"
H        0.65440189      -0.41798511       0.03897806       0.00000000
H       -1.14596893      -1.62201160       1.12601664       0.00000000
Si      -1.86794174      -1.70939117      -0.19538628       0.00000000
Si       0.85265119       1.75218500       1.75471291       0.00000000
Si      -0.08742843       0.82997551      -2.56505394       0.00000000
Si      -2.21291507       0.23987025      -1.56332363       0.00000000
Si       2.63262692       0.20307114       1.12353675       0.00000000
Si       1.39973455      -0.97663438      -2.44946182       0.00000000
Si      -0.26031420      -2.50054760      -1.71824392       0.00000000
Si      -0.38641509       3.07477011       0.24851431       0.00000000
