10
Lattice="16.290000149 0.0 0.0 0.0 16.290000149 0.0 0.0 0.0 29.1751946751" Properties=species:S:1:pos:R:3:initial_magmoms:R:1 pbc="T T T"
Si       1.36226755       1.35086455      -1.34932358       0.00000000
Si       1.37217187      -1.35340579       1.34520988       0.00000000
Si      -1.34444629       1.36980112       1.36108118       0.00000000
Si      -1.36251190      -1.36031275      -1.36026428       0.00000000
Si      -0.02746494       2.69927746      -2.68181307       0.00000000
Si      -0.00447975      -2.67116906       2.71063816       0.00000000
Si       2.67533930      -2.72473058      -0.05271958       0.00000000
Si      -2.67553641       0.02197521       2.73304471       0.00000000
Si       2.68102451      -0.01747917      -2.73406584       0.00000000
Si       2.72220563       2.69496713       0.02777479       0.00000000
