10
Lattice="16.290000149 0.0 0.0 0.0 16.290000149 0.0 0.0 0.0 29.1751946751" Properties=species:S:1:pos:R:3:initial_magmoms:R:1 pbc="T T T"
Si       1.33108149       1.41586165      -1.28753052       0.00000000
Si       1.26907246      -1.39250179       1.37508528       0.00000000
Si      -1.41898933      -1.37285605      -1.30135956       0.00000000
Si      -1.42754158       1.21888297       1.48209989       0.00000000
H       -2.00733527      -0.20567754       1.50587767       0.00000000
H       -2.21609162       0.98303635       2.78728140       0.00000000
Si       2.55210545       0.00851967       2.70439467       0.00000000
Si       2.64560680       0.01904301      -2.64528573       0.00000000
Si      -0.14286330       2.73999432      -2.55420077       0.00000000
Si      -2.88394905       2.44244117       0.13140508       0.00000000
