10
Lattice="16.290000149 0.0 0.0 0.0 16.290000149 0.0 0.0 0.0 29.1751946751" Properties=species:S:1:pos:R:3:initial_magmoms:R:1 pbc="T T T"
Si       1.44190936       1.32616891       1.21185006       0.00000000
Si      -1.23673681       1.39132891      -1.37234281       0.00000000
Si       1.52221906      -1.31535072      -1.19761257       0.00000000
Si      -1.16274763      -1.43800139       1.50406881       0.00000000
H        2.08751465       0.48224916       2.28876485       0.00000000
Si       2.50523912      -2.16537922       0.79321519       0.00000000
Si       0.75647503      -2.49305909       2.28427187       0.00000000
Si       0.00902466       2.54814698       2.50025583       0.00000000
Si      -2.41520429      -2.76139938       0.03611889       0.00000000
Si      -2.52959267      -0.04580748      -2.68420544       0.00000000
