10
Lattice="10.86 0.0 0.0 0.0 10.86 0.0 0.0 0.0 10.86" Properties=species:S:1:pos:R:3:initial_magmoms:R:1 pbc="T T T"
Si      -1.30873860      -1.32852552       1.18347936       0.00000000
Si       1.40626140       1.38647448       1.18347936       0.00000000
Si      -1.30873860       1.38647448      -1.53152064       0.00000000
Si       1.60720398      -1.54810386      -1.45604364       0.00000000
Si      -0.21123786      -2.78867424       2.36541660       0.00000000
Si      -2.66623860       0.02897448       2.54097936       0.00000000
Si       0.04876140       2.74397448       2.54097936       0.00000000
Si      -2.66623860      -2.68602552      -0.17402064       0.00000000
Si      -2.66623860       2.74397448      -0.17402064       0.00000000
Si       2.85799362      -0.03429588       2.55106830       0.00000000
