10
Lattice="10.86 0.0 0.0 0.0 10.86 0.0 0.0 0.0 10.86" Properties=species:S:1:pos:R:3:initial_magmoms:R:1 pbc="T T T"
Si       1.03707570       1.02499938       1.67118024       0.00000000
Si      -1.67792430       1.02499938      -1.04381976       0.00000000
Si       1.03707570      -1.69000062      -1.04381976       0.00000000
Si       2.39457570       2.38249938       0.31368024       0.00000000
Si      -0.32042430       2.38249938      -2.40131976       0.00000000
Si       2.39457570      -0.33250062      -2.40131976       0.00000000
Si      -0.44205630      -2.95623318      -2.34267576       0.00000000
Si      -0.32042430       2.38249938       3.02868024       0.00000000
Si      -3.03542430       2.38249938       0.31368024       0.00000000
Si       2.39457570      -0.33250062       3.02868024       0.00000000
