10
Lattice="16.28999089631971 0.0 0.0 0.0 16.28999089631971 0.0 0.0 0.0 34.383488856416385" Properties=species:S:1:pos:R:3:initial_magmoms:R:1 pbc="T T T"
Si      -1.03362235      -1.80195745       1.08675954       0.00000000
Si       1.15061972      -1.55262434      -1.34824612       0.00000000
Si      -1.59087067       1.17446013      -1.32218342       0.00000000
Si       1.32058143       1.36519974       1.62998458       0.00000000
Si       2.58902020       2.56453470       0.08468658       0.00000000
Si       2.48919508      -0.21093921      -2.71148345       0.00000000
Si      -0.23248015       2.50778034      -2.70783879       0.00000000
Si       2.45698975      -2.89455772       0.13653691       0.00000000
Si      -2.78219095      -2.75405093      -0.11490968       0.00000000
Si      -2.88665872       2.66049909       0.23411731       0.00000000
