10
Lattice="16.28999089631971 0.0 0.0 0.0 16.28999089631971 0.0 0.0 0.0 34.383488856416385" Properties=species:S:1:pos:R:3:initial_magmoms:R:1 pbc="T T T"
Si       2.14964469       0.91089770      -0.17587164       0.00000000
Si       0.41216958      -2.11243574       0.99419914       0.00000000
Si      -0.30244014      -0.44832361      -2.33023911       0.00000000
Si      -1.48421448       1.47620957       1.47883468       0.00000000
Si      -2.56274280      -0.98710625      -2.03185903       0.00000000
Si       1.66920372       3.20923751       0.05786744       0.00000000
Si       3.26723643      -0.08344390       1.66364604       0.00000000
Si       1.94298975      -1.73967167       2.70938605       0.00000000
Si      -1.68089994      -3.11922290       1.64105607       0.00000000
Si      -3.38102208       1.23598094      -1.53450158       0.00000000
