10
Lattice="16.28999089631971 0.0 0.0 0.0 16.28999089631971 0.0 0.0 0.0 34.383488856416385" Properties=species:S:1:pos:R:3:initial_magmoms:R:1 pbc="T T T"
Si      -1.29733560       1.51837461       1.22037385       0.00000000
Si       1.33146315       1.37637468      -1.36385623       0.00000000
Si      -1.38364002      -1.33972218      -1.36196514       0.00000000
Si       1.39782861      -1.38005622       1.44458871       0.00000000
Si      -2.68043805       0.31012902       2.62841289       0.00000000
Si       2.68493409      -2.69529453      -0.00993683       0.00000000
Si       2.69079849       0.02112813      -2.72234864       0.00000000
Si      -0.02248020      -2.69397504      -2.72320822       0.00000000
Si       2.69286732       2.73672000       0.00704862       0.00000000
Si      -2.73318507      -2.70648576       0.02200545       0.00000000
