10
Lattice="16.28999089631971 0.0 0.0 0.0 16.28999089631971 0.0 0.0 0.0 34.383488856416385" Properties=species:S:1:pos:R:3:initial_magmoms:R:1 pbc="T T T"
Si       1.32312267       0.15122007      -1.90553402       0.00000000
Si      -2.10962016       0.84786192      -0.70321151       0.00000000
Si       0.52103565       1.92137292       1.40814219       0.00000000
Si       0.21812310      -2.54317851       0.18659930       0.00000000
Si      -3.28919535      -1.08312210      -0.18869669       0.00000000
Si       1.87473465       2.44149633      -1.98134965       0.00000000
Si       0.09580149      -1.17025731      -3.47077446       0.00000000
Si      -2.04432984      -3.01189068      -0.53260054       0.00000000
Si       3.37154130      -0.81015057      -1.23436794       0.00000000
Si       2.16112914      -0.75100158       2.92858092       0.00000000
