10
Lattice="16.28999089631971 0.0 0.0 0.0 16.28999089631971 0.0 0.0 0.0 34.383488856416385" Properties=species:S:1:pos:R:3:initial_magmoms:R:1 pbc="T T T"
Si       1.35661491       1.35532800      -1.35660131       0.00000000
Si      -1.35682668       1.35711990       1.35742652       0.00000000
Si       1.35765747      -1.35775521       1.35732336       0.00000000
Si      -1.35829278      -1.35834165      -1.35615433       0.00000000
Si      -2.71230292       0.00224802      -2.71275564       0.00000000
Si      -2.71380323       0.00040725       2.71419974       0.00000000
Si       0.00084708      -2.71441899       2.71450920       0.00000000
Si      -2.71510969       2.71430496       0.00020630       0.00000000
Si       0.00267156       2.71384884      -2.71560947       0.00000000
Si       2.71471221       2.71482624      -0.00020630       0.00000000
