10
Lattice="16.28999089631971 0.0 0.0 0.0 16.28999089631971 0.0 0.0 0.0 34.383488856416385" Properties=species:S:1:pos:R:3:initial_magmoms:R:1 pbc="T T T"
Si      -1.36979352      -1.34166069       1.34570174       0.00000000
Si      -1.35114147       1.35734796      -1.36299664       0.00000000
Si       1.36464588      -1.35948195      -1.36141500       0.00000000
Si       1.38411243       1.36213722       1.38207949       0.00000000
Si       0.09137061      -2.57583996       2.58079173       0.00000000
Si      -2.70852201       2.71000440      -0.00347273       0.00000000
Si      -2.71295289      -2.71406061      -0.00192548       0.00000000
Si      -2.70852201      -0.00252495      -2.71918535       0.00000000
Si       2.71899648       2.71282257      -0.00646410       0.00000000
Si       0.00599472       2.71243161      -2.71973549       0.00000000
