10
Lattice="16.28999089631971 0.0 0.0 0.0 16.28999089631971 0.0 0.0 0.0 34.383488856416385" Properties=species:S:1:pos:R:3:initial_magmoms:R:1 pbc="T T T"
Si       2.26030266       0.53878265      -0.29838008       0.00000000
Si      -0.81827928       2.22308720       0.49735744       0.00000000
Si      -1.28868561      -0.87055389      -1.85980395       0.00000000
Si      -0.35504055      -1.76746500       1.66278645       0.00000000
Si       2.56274280       0.98710625       2.03185903       0.00000000
Si      -2.68838757      -1.54991205       1.62355487       0.00000000
Si      -3.37986712      -0.98609886      -0.62894313       0.00000000
Si      -1.18392462       1.99460366       2.79149387       0.00000000
Si      -0.83108322      -3.23595963      -1.63679252       0.00000000
Si       0.95620671       3.83623703      -0.14668005       0.00000000
