10
Lattice="16.28999089631971 0.0 0.0 0.0 16.28999089631971 0.0 0.0 0.0 34.383488856416385" Properties=species:S:1:pos:R:3:initial_magmoms:R:1 pbc="T T T"
Si       1.47124764       1.01734308       1.52126191       0.00000000
Si       1.53398043      -0.91064358      -1.58985903       0.00000000
Si      -1.16667840       1.68507018      -1.34415448       0.00000000
Si      -1.32513611      -1.62286519       1.30994774       0.00000000
Si       2.76726375       2.44299501      -0.02193668       0.00000000
Si       1.07362503      -3.17517254      -1.61753775       0.00000000
Si       0.79122159       3.33252675      -1.52270804       0.00000000
Si       0.00324171       2.27649492       2.97850719       0.00000000
Si      -3.25018799      -1.92772113      -0.29105640       0.00000000
Si      -2.14816393       0.45305748      -3.18731681       0.00000000
