10
Lattice="16.28999089631971 0.0 0.0 0.0 16.28999089631971 0.0 0.0 0.0 34.383488856416385" Properties=species:S:1:pos:R:3:initial_magmoms:R:1 pbc="T T T"
Si      -0.71633646      -2.17609380      -0.37794352       0.00000000
Si      -1.56025620       0.73224853       1.62867801       0.00000000
Si       0.05046642       1.06194184      -2.13562845       0.00000000
Si       1.99179459       0.50929708       1.21167482       0.00000000
Si       1.31934339      -2.83864068      -1.35797665       0.00000000
Si      -0.44266446      -0.26209307       3.46819569       0.00000000
Si       1.79675442       2.85972253       1.30818933       0.00000000
Si      -1.21933908       3.00458950      -1.71738746       0.00000000
Si      -0.28554741       3.68536489       0.45286518       0.00000000
Si      -2.60327232      -2.01866724      -1.87751146       0.00000000
