10
Lattice="16.28999089631971 0.0 0.0 0.0 16.28999089631971 0.0 0.0 0.0 34.383488856416385" Properties=species:S:1:pos:R:3:initial_magmoms:R:1 pbc="T T T"
Si      -1.35552348       1.35835794      -1.35797665       0.00000000
Si      -1.33146315      -1.37637468       1.36385623       0.00000000
Si       1.35933534      -1.35524655      -1.35849240       0.00000000
Si       1.36140417       1.36034532       1.37090485       0.00000000
Si      -2.62879875       0.14199993       2.58423008       0.00000000
Si       2.71347417       2.71593396       0.00251000       0.00000000
Si      -2.71420722       0.00043983      -2.71585015       0.00000000
Si       0.00060273      -2.71459818      -2.71609084       0.00000000
Si      -2.71510317      -2.71609686       0.00189109       0.00000000
Si       0.00066789       2.71590138      -2.71567823       0.00000000
