10
Lattice="16.28999089631971 0.0 0.0 0.0 16.28999089631971 0.0 0.0 0.0 34.383488856416385" Properties=species:S:1:pos:R:3:initial_magmoms:R:1 pbc="T T T"
Si      -1.44653571       1.23336477      -1.34721461       0.00000000
Si       1.48403529      -1.46502486      -1.21703865       0.00000000
Si      -1.04096358      -1.50752547       1.59205957       0.00000000
Si       0.59284197       2.26813815       0.98285258       0.00000000
Si       0.59855976       1.33196814       3.10183941       0.00000000
Si       0.22884192      -3.45017313       1.17381858       0.00000000
Si       2.44253889      -2.56704336       0.88272780       0.00000000
Si       2.76889275      -0.03388320      -2.60857361       0.00000000
Si       0.03890052       2.57737122      -2.80394070       0.00000000
Si      -2.65194684      -0.22960755      -2.74280682       0.00000000
