10
Lattice="16.28999089631971 0.0 0.0 0.0 16.28999089631971 0.0 0.0 0.0 34.383488856416385" Properties=species:S:1:pos:R:3:initial_magmoms:R:1 pbc="T T T"
Si      -1.35418770       1.36010097      -1.36083048       0.00000000
Si      -1.35207000      -1.35558864       1.36839485       0.00000000
Si       1.36081773      -1.35830907      -1.36131185       0.00000000
Si       1.35969372       1.36972836       1.37795347       0.00000000
Si       0.04373865      -2.66538609       2.74480107       0.00000000
Si      -2.71464705       2.71472850      -0.00553574       0.00000000
Si      -2.71347417      -2.71593396      -0.00251000       0.00000000
Si       2.71490769       2.71453302      -0.00457301       0.00000000
Si      -2.71280628      -0.00003258      -2.71818823       0.00000000
Si       0.00263898       2.71450044      -2.71846330       0.00000000
