10
Lattice="16.28999089631971 0.0 0.0 0.0 16.28999089631971 0.0 0.0 0.0 34.383488856416385" Properties=species:S:1:pos:R:3:initial_magmoms:R:1 pbc="T T T"
Si      -1.35461124       1.35848826      -1.35526035       0.00000000
Si      -1.35521397      -1.35713619       1.35642939       0.00000000
Si       1.35990549       1.35842310       1.35646378       0.00000000
Si       1.36008468      -1.35627282      -1.36416568       0.00000000
Si      -0.01127268       2.70030048      -2.70510531       0.00000000
Si      -2.71016730       2.71444196      -0.00044699       0.00000000
Si      -2.71223613       0.00011403       2.71351207       0.00000000
Si       0.00260640      -2.71425609       2.71413098       0.00000000
Si       0.00244350       2.71525119       2.71392468       0.00000000
Si      -2.71331127      -2.71663443       0.00003438       0.00000000
