10
Lattice="16.28999089631971 0.0 0.0 0.0 16.28999089631971 0.0 0.0 0.0 34.383488856416385" Properties=species:S:1:pos:R:3:initial_magmoms:R:1 pbc="T T T"
Si      -1.35439947       1.35604476      -1.35629186       0.00000000
Si       1.36045935      -1.35462753      -1.35529474       0.00000000
Si      -1.33488405      -1.35068535       1.38854359       0.00000000
Si       1.35210258       1.35777150       1.37826292       0.00000000
Si      -2.52926685       0.21880728       2.75095571       0.00000000
Si      -2.71267596       2.71341477       0.00656725       0.00000000
Si      -2.71300176      -0.00039096      -2.71327139       0.00000000
Si       0.00184077      -2.71476108      -2.71265249       0.00000000
Si       0.00167787       2.71474620      -2.71285879       0.00000000
Si       2.71464705      -2.71472850       0.00553574       0.00000000
