10
Lattice="16.28999089631971 0.0 0.0 0.0 16.28999089631971 0.0 0.0 0.0 34.383488856416385" Properties=species:S:1:pos:R:3:initial_magmoms:R:1 pbc="T T T"
Si       2.00832894      -0.82813473       0.93406238       0.00000000
Si       1.28068722       1.35889551      -1.62922815       0.00000000
Si      -1.32069546      -1.41569874      -1.57046673       0.00000000
Si      -1.26759006       0.72941733       2.07177828       0.00000000
Si      -2.93242806       0.91735506       0.46785639       0.00000000
Si       2.83071330      -2.64451860      -0.34039673       0.00000000
Si      -3.08718306      -2.41644231      -0.33248852       0.00000000
Si       1.84886613      -1.74469158       3.07783973       0.00000000
Si       2.63883339      -0.05566293      -3.09259025       0.00000000
Si      -0.08340480       2.64710871      -3.09781654       0.00000000
