10
Lattice="16.28999089631971 0.0 0.0 0.0 16.28999089631971 0.0 0.0 0.0 34.383488856416385" Properties=species:S:1:pos:R:3:initial_magmoms:R:1 pbc="T T T"
Si       0.69579477      -0.13067349      -2.25177594       0.00000000
Si      -1.48359546       1.79862288       0.38688323       0.00000000
Si      -1.38676770      -1.99643302      -0.42291715       0.00000000
Si       1.78261211      -0.22349065       1.70160543       0.00000000
Si       0.31359879      -0.58743206       3.47417842       0.00000000
Si       0.59634432      -3.47484826      -0.71032889       0.00000000
Si       2.18311968      -2.02717225      -2.07170951       0.00000000
Si      -1.05277383      -1.08276698      -3.45344517       0.00000000
Si      -3.69729243       0.91549311       0.67797401       0.00000000
Si      -0.59176683       3.13277388       2.22155284       0.00000000
