10
Lattice="16.28999089631971 0.0 0.0 0.0 16.28999089631971 0.0 0.0 0.0 34.383488856416385" Properties=species:S:1:pos:R:3:initial_magmoms:R:1 pbc="T T T"
Si       1.21023297      -1.92181275      -0.26482178       0.00000000
Si      -1.97512992      -1.16297568      -0.38760529       0.00000000
Si       0.26485911       0.68367501       2.23630336       0.00000000
Si       0.60528753       1.35615879      -1.85987272       0.00000000
Si       3.35303586       0.94426614       0.45224628       0.00000000
Si       2.18031876       1.97503218       2.15643048       0.00000000
Si      -2.53332306      -2.04929829       1.64284402       0.00000000
Si      -3.50560800       0.45960606      -0.95235441       0.00000000
Si       3.20653989      -1.37253024      -1.29416086       0.00000000
Si      -1.72437795       1.72439424       2.83639873       0.00000000
