10
Lattice="16.28999089631971 0.0 0.0 0.0 16.28999089631971 0.0 0.0 0.0 34.383488856416385" Properties=species:S:1:pos:R:3:initial_magmoms:R:1 pbc="T T T"
Si      -2.28876129       0.23169919       0.16256523       0.00000000
Si       0.14569776       1.00308933      -2.09395564       0.00000000
Si       1.58366493      -1.67417284       0.37426449       0.00000000
Si       1.03692366       1.43354281       1.55076498       0.00000000
Si       3.22361181      -0.11952950      -0.48264130       0.00000000
Si      -2.14843923       2.19237988       1.42798147       0.00000000
Si       2.21526081       0.05280892      -2.64505451       0.00000000
Si       1.09103904       0.01749383       3.41266633       0.00000000
Si       3.03323058       1.98282532       0.52142590       0.00000000
Si      -1.84609683       0.49379225      -3.30563047       0.00000000
