10
Lattice="16.28999089631971 0.0 0.0 0.0 16.28999089631971 0.0 0.0 0.0 34.383488856416385" Properties=species:S:1:pos:R:3:initial_magmoms:R:1 pbc="T T T"
Si      -1.29727044       1.93160304       0.12347118       0.00000000
Si       2.27181969       0.63780237       0.29428845       0.00000000
Si      -0.60528753      -1.35615879       1.85987272       0.00000000
Si      -0.48132063      -1.35799956      -1.95315518       0.00000000
Si       3.13085966      -1.07681787      -1.04546495       0.00000000
Si       2.74774833      -0.41189265       2.31211900       0.00000000
Si       0.60494544      -3.27797154       1.59505094       0.00000000
Si      -3.38872725       1.27936773       1.04309248       0.00000000
Si       2.60125236      -2.72868903       0.56571186       0.00000000
Si      -2.56362246      -0.53235720      -2.80847932       0.00000000
