10
Lattice="16.28999089631971 0.0 0.0 0.0 16.28999089631971 0.0 0.0 0.0 34.383488856416385" Properties=species:S:1:pos:R:3:initial_magmoms:R:1 pbc="T T T"
Si       2.18742839       0.66912804       0.24460428       0.00000000
Si      -1.17271710       1.03076604       1.70418419       0.00000000
Si      -0.47592864       1.04969502      -2.01783055       0.00000000
Si       1.85568254      -1.60528176      -0.49151225       0.00000000
Si      -0.14649597      -2.31679638      -1.74640714       0.00000000
Si       0.38311133      -0.66492522      -3.35758395       0.00000000
Si      -3.35303586      -0.94426614      -0.45224628       0.00000000
Si      -3.08817675      -0.26059113       1.78405708       0.00000000
Si       0.69438147       3.12362379      -1.66457439       0.00000000
Si      -2.74774833       0.41189265      -2.31211900       0.00000000
