10
Lattice="16.28999089631971 0.0 0.0 0.0 16.28999089631971 0.0 0.0 0.0 34.383488856416385" Properties=species:S:1:pos:R:3:initial_magmoms:R:1 pbc="T T T"
Si      -0.76606983      -1.59627339      -1.55031800       0.00000000
Si      -2.04504660       0.60931116       1.01001555       0.00000000
Si       1.45992609      -0.74430639       1.70525008       0.00000000
Si       1.27571877       1.48880826      -1.38159812       0.00000000
Si       3.36424338       0.36447246       1.00007872       0.00000000
Si       2.49103422       2.49005682       0.36498094       0.00000000
Si      -2.78070300      -1.52440191       1.62056350       0.00000000
Si      -0.91909809      -0.26823114      -3.49979414       0.00000000
Si      -2.85752664      -2.24850870      -0.63069669       0.00000000
Si      -3.63957696       0.87863373      -0.79577191       0.00000000
