10
Lattice="16.28999089631971 0.0 0.0 0.0 16.28999089631971 0.0 0.0 0.0 34.383488856416385" Properties=species:S:1:pos:R:3:initial_magmoms:R:1 pbc="T T T"
Si       1.79662410       1.33154460       0.77672345       0.00000000
Si      -2.20275335       0.87091227      -0.26550945       0.00000000
Si      -0.70970643      -1.58358348       1.64366922       0.00000000
Si       0.84517407      -1.36994013      -1.78082503       0.00000000
Si       3.47582988      -0.29642913       0.33052866       0.00000000
Si      -0.33440112      -3.30092415      -1.26631022       0.00000000
Si      -3.37306346      -1.20301650      -0.61876561       0.00000000
Si       1.59052302       3.36958650      -0.47046954       0.00000000
Si       2.95479423      -2.21780205      -1.07761353       0.00000000
Si      -2.81184038       2.05153002       1.76081383       0.00000000
