10
Lattice="16.28999089631971 0.0 0.0 0.0 16.28999089631971 0.0 0.0 0.0 34.383488856416385" Properties=species:S:1:pos:R:3:initial_magmoms:R:1 pbc="T T T"
Si       0.86698638      -1.97319141      -1.00836514       0.00000000
Si      -0.52817393       2.01868938      -1.19750882       0.00000000
Si       1.41718113       0.64467675       1.84412507       0.00000000
Si      -2.27932028      -0.86918553       0.35181205       0.00000000
Si      -2.20282244       2.81284317       0.35036795       0.00000000
Si       2.89745343       1.39807296      -1.75080823       0.00000000
Si       0.29466981      -1.91949957      -3.26216971       0.00000000
Si      -3.69378098       1.01470410      -0.08898452       0.00000000
Si      -3.06547568      -1.55786157      -1.80258979       0.00000000
Si       1.40589216       3.24410463      -1.79206844       0.00000000
