10
Lattice="16.28999089631971 0.0 0.0 0.0 16.28999089631971 0.0 0.0 0.0 34.383488856416385" Properties=species:S:1:pos:R:3:initial_magmoms:R:1 pbc="T T T"
Si       1.34475742       1.34154666      -1.36931633       0.00000000
Si      -1.36672215      -1.35332433      -1.33713681       0.00000000
Si      -1.36054708       1.35317772       1.35491652       0.00000000
Si       1.35401014      -1.36058967       1.35660131       0.00000000
Si      -0.25117062       2.42442441      -2.75946219       0.00000000
Si      -0.06896860      -2.65916331      -2.74982106       0.00000000
Si      -0.00280677       2.71205694       2.71296194       0.00000000
Si       2.71230292      -0.00224802       2.71275564       0.00000000
Si      -2.71404988       2.71231758      -0.00134096       0.00000000
Si       2.71497448       2.71160082      -0.00285383       0.00000000
