10
Lattice="16.28999089631971 0.0 0.0 0.0 16.28999089631971 0.0 0.0 0.0 34.383488856416385" Properties=species:S:1:pos:R:3:initial_magmoms:R:1 pbc="T T T"
Si      -1.34239594      -1.36454814       1.35560419       0.00000000
Si       1.36007012      -1.35322659      -1.36213706       0.00000000
Si      -1.35552568       1.36249560      -1.36175884       0.00000000
Si       1.40447014       1.35342207       1.36915129       0.00000000
Si      -2.59195297       0.07424982       2.69714552       0.00000000
Si       0.11471151      -2.57735493       2.82477711       0.00000000
Si       2.71261578      -2.70804960      -0.00165041       0.00000000
Si      -2.71109803      -2.71261080      -0.00316328       0.00000000
Si       0.00123904      -2.71145421      -2.71904782       0.00000000
Si      -2.71308541       0.00325800      -2.71915097       0.00000000
