10
Lattice="16.28999089631971 0.0 0.0 0.0 16.28999089631971 0.0 0.0 0.0 34.383488856416385" Properties=species:S:1:pos:R:3:initial_magmoms:R:1 pbc="T T T"
Si      -1.29814963      -1.16890524       1.55722908       0.00000000
Si      -1.45710745       1.21280679      -1.46917292       0.00000000
Si       1.24987908      -1.48835214      -1.44359159       0.00000000
Si       1.00487097       1.77145605       1.37479019       0.00000000
Si       2.19570418      -0.21452301       2.30142573       0.00000000
Si       0.68767046      -2.01637620       2.81277726       0.00000000
Si      -2.70666448       2.65160475      -0.12763158       0.00000000
Si      -0.11471151       2.57735493      -2.82477711       0.00000000
Si       2.59790428      -0.13069467      -2.82642751       0.00000000
Si      -2.77175932      -2.69518050       0.11473777       0.00000000
