10
Lattice="16.28999089631971 0.0 0.0 0.0 16.28999089631971 0.0 0.0 0.0 34.383488856416385" Properties=species:S:1:pos:R:3:initial_magmoms:R:1 pbc="T T T"
Si      -1.86452245      -0.84882303       1.22161166       0.00000000
Si       1.07167023      -1.37857383      -1.63197883       0.00000000
Si       1.73845251       1.10690550       1.29306059       0.00000000
Si      -1.57963478       1.31049792      -1.60880434       0.00000000
Si      -0.67368924      -2.83480209       2.14824720       0.00000000
Si      -0.94612320       0.77356323       3.40829962       0.00000000
Si       2.53283436      -2.61275310      -0.39688883       0.00000000
Si       0.33185988      -1.19834127       3.56770156       0.00000000
Si       3.50878455      -1.02987009       1.15944628       0.00000000
Si       2.44146375      -0.03691314      -2.97768057       0.00000000
