10
Lattice="16.28999089631971 0.0 0.0 0.0 16.28999089631971 0.0 0.0 0.0 34.383488856416385" Properties=species:S:1:pos:R:3:initial_magmoms:R:1 pbc="T T T"
Si      -2.29589631       0.45729288      -0.06962660       0.00000000
Si       1.24537050       1.76019966      -1.02854826       0.00000000
Si       0.54877752      -1.68870285      -1.60113682       0.00000000
Si       1.02312603      -0.03660363       2.19689986       0.00000000
Si       3.24532638       0.70332075      -0.40122116       0.00000000
Si       2.85250932      -1.47486402      -1.17467817       0.00000000
Si      -2.60476611       2.52703512       0.92213130       0.00000000
Si       3.00685707       1.25548659       1.88813596       0.00000000
Si      -2.86603979       1.01892321      -2.30056614       0.00000000
Si       0.07317468      -0.86938101      -3.81890747       0.00000000
