10
Lattice="16.28999089631971 0.0 0.0 0.0 16.28999089631971 0.0 0.0 0.0 34.383488856416385" Properties=species:S:1:pos:R:3:initial_magmoms:R:1 pbc="T T T"
Si       1.03591368      -1.69986150      -1.25588170       0.00000000
Si      -1.33632409      -1.35609363       1.38787999       0.00000000
Si       1.38137571       1.35279558       1.38612643       0.00000000
Si      -1.30241156       1.52709043      -1.65606791       0.00000000
Si       2.34277893      -0.32397552      -2.57976607       0.00000000
Si      -2.67685433       2.71186865       0.00276100       0.00000000
Si      -2.67697547      -2.75012667       0.03722015       0.00000000
Si      -2.69232065      -0.00917127       2.74712883       0.00000000
Si       2.73600324       2.70683504       0.01571670       0.00000000
Si       2.73245202      -2.71378368       0.02977612       0.00000000
