10
Lattice="16.28999089631971 0.0 0.0 0.0 16.28999089631971 0.0 0.0 0.0 34.383488856416385" Properties=species:S:1:pos:R:3:initial_magmoms:R:1 pbc="T T T"
Si      -0.56597650      -1.93376961      -1.22893535       0.00000000
Si      -1.48732491       1.89649876      -0.18006643       0.00000000
Si       2.00328718       0.80389849      -1.13028906       0.00000000
Si      -1.58677536      -1.44767601       1.36138062       0.00000000
Si      -2.03136204      -0.60800796      -2.61617236       0.00000000
Si       0.69691715       2.14583187      -2.61507209       0.00000000
Si      -2.18311968       2.02717225       2.07170951       0.00000000
Si      -3.23589351       0.94440528      -1.38173566       0.00000000
Si      -3.56988738       0.03073923       1.64879236       0.00000000
Si      -0.45370256       3.69845621      -1.26682597       0.00000000
