10
Lattice="16.28999089631971 0.0 0.0 0.0 16.28999089631971 0.0 0.0 0.0 34.433804113860816" Properties=species:S:1:pos:R:3:initial_magmoms:R:1 pbc="T T T"
Si       1.82390985      -0.01205460      -1.46484928       0.00000000
Si      -1.28880683       1.96863021       0.24565090       0.00000000
Si       0.89439593      -0.36900108       2.16774692       0.00000000
Si      -1.49852429      -1.72173897      -0.80151611       0.00000000
Si       0.19726864      -3.36805524      -0.68017131       0.00000000
Si       2.20778370      -2.34088929      -1.28066276       0.00000000
Si       0.56304593       0.76113396      -3.37396375       0.00000000
Si      -1.10839508      -0.10423971       3.45798228       0.00000000
Si      -3.35172356      -1.43055522       0.69725049       0.00000000
Si      -2.28907799       1.76215446       2.45413302       0.00000000
