10
Lattice="16.28999089631971 0.0 0.0 0.0 16.28999089631971 0.0 0.0 0.0 34.433804113860816" Properties=species:S:1:pos:R:3:initial_magmoms:R:1 pbc="T T T"
Si      -1.56744092      -1.08965439       1.44314017       0.00000000
Si      -0.63659774       1.31027379      -1.95859587       0.00000000
Si       1.19183814       1.57390137       1.55219898       0.00000000
Si       1.17629422      -2.02271301      -1.28510472       0.00000000
Si       1.49378306       2.30727392      -2.31064728       0.00000000
Si      -3.04463441      -2.20817466      -0.11418256       0.00000000
Si      -0.12993311      -2.36177307       3.02102192       0.00000000
Si       1.93504658      -0.83106693      -3.34321434       0.00000000
Si       2.59586672       0.32940009       3.02781227       0.00000000
Si       2.88889124      -2.80598508       0.30935347       0.00000000
