10
Lattice="16.28999089631971 0.0 0.0 0.0 16.28999089631971 0.0 0.0 0.0 34.433804113860816" Properties=species:S:1:pos:R:3:initial_magmoms:R:1 pbc="T T T"
Si       0.96273900       1.70113212       1.31951586       0.00000000
Si      -1.64875162      -0.96860340       1.41716674       0.00000000
Si      -1.71259702       0.78327207      -1.59445819       0.00000000
Si       1.88577927      -1.78756686       0.01241328       0.00000000
Si      -0.28491210      -2.27695104       2.75768581       0.00000000
Si      -2.45133712      -2.68253946       0.02112598       0.00000000
Si       1.31921307       3.42003893      -0.31747985       0.00000000
Si       2.43103815       0.44457039       2.72852036       0.00000000
Si      -2.72309016      -1.48188501      -2.23785418       0.00000000
Si       1.07108379      -3.53260053       1.37878335       0.00000000
