10
Lattice="16.28999089631971 0.0 0.0 0.0 16.28999089631971 0.0 0.0 0.0 34.433804113860816" Properties=species:S:1:pos:R:3:initial_magmoms:R:1 pbc="T T T"
Si      -0.71232912      -0.96649385       2.00318767       0.00000000
Si       1.81705176      -1.05526620      -1.05116133       0.00000000
Si      -2.02233834      -0.15873139      -1.29350657       0.00000000
Si       0.79371396       2.26499418       0.24048582       0.00000000
Si      -2.39156748       2.20778370      -1.08659373       0.00000000
Si      -0.19655514       2.92069926      -1.79097202       0.00000000
Si      -2.02440717       0.86094279       2.79185996       0.00000000
Si       3.16669455       1.88076195       0.52714740       0.00000000
Si       3.71882781      -0.38563643       0.15495221       0.00000000
Si      -2.41168563      -2.53176641       1.69008092       0.00000000
