10
Lattice="16.28999089631971 0.0 0.0 0.0 16.28999089631971 0.0 0.0 0.0 34.433804113860816" Properties=species:S:1:pos:R:3:initial_magmoms:R:1 pbc="T T T"
Si      -1.42394443       1.24836786      -1.40579527       0.00000000
Si      -1.79934748      -0.75368943       1.35776009       0.00000000
Si       1.26827033      -1.48590538      -1.39253825       0.00000000
Si       1.88550658       0.71850303       1.41498910       0.00000000
Si       0.77130804      -2.31674425       2.77016666       0.00000000
Si       2.69740018       2.65479759       0.11852122       0.00000000
Si      -0.07126945       2.59084305      -2.76138603       0.00000000
Si      -2.92283620       2.44543851      -0.04159606       0.00000000
Si       2.64163951      -0.12478140      -2.75060824       0.00000000
Si      -0.95663320      -0.98450244       3.58996712       0.00000000
