10
Lattice="16.28999089631971 0.0 0.0 0.0 16.28999089631971 0.0 0.0 0.0 34.433804113860816" Properties=species:S:1:pos:R:3:initial_magmoms:R:1 pbc="T T T"
Si       1.34578206       1.36485765       1.38067580       0.00000000
Si      -1.47647673       1.29472920      -1.31683549       0.00000000
Si      -1.37124333      -1.35868374       1.38005599       0.00000000
Si       1.54751742      -1.24380666      -1.50054338       0.00000000
Si       2.68796403      -2.68260462       0.03745367       0.00000000
Si       2.68310961       2.71117728      -0.00471055       0.00000000
Si      -2.69996976      -2.71699281       0.00046830       0.00000000
Si       2.69778690       0.00737937       2.73795381       0.00000000
Si      -0.01526373      -2.70643689       2.74032975       0.00000000
Si      -0.01593162       2.72171691       2.73860806       0.00000000
