10
Lattice="16.28999089631971 0.0 0.0 0.0 16.28999089631971 0.0 0.0 0.0 34.433804113860816" Properties=species:S:1:pos:R:3:initial_magmoms:R:1 pbc="T T T"
Si       1.48652766       1.43881425       1.18276740       0.00000000
Si       1.38087072      -1.28966301      -1.49539208       0.00000000
Si      -1.33217991       1.39908294      -1.47820960       0.00000000
Si      -0.83445525      -1.85411151       1.36333837       0.00000000
Si      -2.64385071      -2.71015101      -0.04762198       0.00000000
Si       2.66232357      -2.76193692      -0.19782232       0.00000000
Si      -2.69399133       2.82631500      -0.06335823       0.00000000
Si       0.03088584      -2.66551641      -2.86103752       0.00000000
Si      -2.68998399       0.04676859      -2.86413656       0.00000000
Si       2.73851190       0.04948902      -2.86661579       0.00000000
