10
Lattice="16.28999089631971 0.0 0.0 0.0 16.28999089631971 0.0 0.0 0.0 34.433804113860816" Properties=species:S:1:pos:R:3:initial_magmoms:R:1 pbc="T T T"
Si       2.15930466       0.21343158       0.95722586       0.00000000
Si       0.44983206       1.25631738      -1.98951745       0.00000000
Si      -1.21233438      -1.97856711       0.60062918       0.00000000
Si      -1.80978642       1.48599009       0.61302536       0.00000000
Si      -3.28539652      -1.83466125      -0.51898659       0.00000000
Si       0.22613778       3.62727801      -1.24337093       0.00000000
Si       2.21692239      -0.32695659       3.22889405       0.00000000
Si      -1.14595263       2.92138344       2.37283477       0.00000000
Si       3.07201707       2.38997106       0.62490503       0.00000000
Si      -0.80233137       0.18072126      -3.86464573       0.00000000
