10
Lattice="16.28999089631971 0.0 0.0 0.0 16.28999089631971 0.0 0.0 0.0 34.433804113860816" Properties=species:S:1:pos:R:3:initial_magmoms:R:1 pbc="T T T"
Si      -0.65855583       1.02322377       2.00067400       0.00000000
Si       0.47767167       1.51892847      -1.73253782       0.00000000
Si      -1.64846655      -1.45016838      -0.93260567       0.00000000
Si       1.97912097      -1.32486570       0.32632934       0.00000000
Si       1.16965458      -0.04611699      -3.48397981       0.00000000
Si      -0.33638850      -3.27760501      -1.72127796       0.00000000
Si       1.26252387       2.08466388       2.81331224       0.00000000
Si       1.29857364      -3.52099065      -0.04841396       0.00000000
Si      -1.09879308      -0.69838488       3.52788294       0.00000000
Si      -2.80769553      -2.52080582       0.83243768       0.00000000
