10
Lattice="16.28999089631971 0.0 0.0 0.0 16.28999089631971 0.0 0.0 0.0 34.433804113860816" Properties=species:S:1:pos:R:3:initial_magmoms:R:1 pbc="T T T"
Si      -0.81469548      -1.74503367       1.36637007       0.00000000
Si       1.78812072       0.80110962       1.36382541       0.00000000
Si       0.56708748      -1.84116096      -1.48118802       0.00000000
Si      -1.88577927       1.78756686      -0.01241328       0.00000000
Si      -2.17069137      -0.48938418       2.74527253       0.00000000
Si       0.54525888       2.23213725       2.71610708       0.00000000
Si      -2.64647340      -2.65722480       0.25713059       0.00000000
Si       2.95901334       2.34281151      -0.00759530       0.00000000
Si      -1.63869255      -2.92473918      -1.80176692       0.00000000
Si      -0.92304027       3.48869898       1.30710257       0.00000000
