10
Lattice="16.28999089631971 0.0 0.0 0.0 16.28999089631971 0.0 0.0 0.0 34.433804113860816" Properties=species:S:1:pos:R:3:initial_magmoms:R:1 pbc="T T T"
Si      -1.24286184       1.43102763       1.35228167       0.00000000
Si       1.17089262       1.54170189      -1.37142071       0.00000000
Si       1.47771477      -1.30859199       1.32933841       0.00000000
Si      -1.78812072      -0.80110962      -1.36382541       0.00000000
Si      -2.60281620      -2.54614329       0.00254466       0.00000000
Si      -2.59832016       0.06305859       2.71237981       0.00000000
Si       0.12088809      -2.65458582       2.70752464       0.00000000
Si      -2.71116099       2.68758936      -0.05672284       0.00000000
Si       0.11528433       2.78099622       2.71193217       0.00000000
Si       2.76545556       2.73022029      -0.00785780       0.00000000
