10
Lattice="16.28999089631971 0.0 0.0 0.0 16.28999089631971 0.0 0.0 0.0 34.433804113860816" Properties=species:S:1:pos:R:3:initial_magmoms:R:1 pbc="T T T"
Si      -1.01708244      -1.75318356       1.24357753       0.00000000
Si       2.37374622      -0.33646995      -0.24747589       0.00000000
Si      -0.63170991       2.07052416       1.07454189       0.00000000
Si       1.87655913      -2.74781675       0.23428773       0.00000000
Si      -2.70477205       2.21443002      -0.04507387       0.00000000
Si      -1.78030152       0.26013501      -3.25678545       0.00000000
Si      -0.06199974      -1.62038259      -3.35481854       0.00000000
Si       0.48913983      -3.40093565      -1.65134287       0.00000000
Si       0.73055763      -2.97521700       2.29869875       0.00000000
Si      -2.94473515      -1.00501155       2.29584074       0.00000000
