10
Lattice="16.28999089631971 0.0 0.0 0.0 16.28999089631971 0.0 0.0 0.0 34.433804113860816" Properties=species:S:1:pos:R:3:initial_magmoms:R:1 pbc="T T T"
Si       0.02566978      -2.30638870       0.26658666       0.00000000
Si       2.24136065       0.70407009       0.52335968       0.00000000
Si      -0.32173727       0.69559929      -2.28619927       0.00000000
Si      -2.27571693       0.38442771       0.77465772       0.00000000
Si      -1.89894552      -2.66064081      -1.02485388       0.00000000
Si      -3.27168753      -0.70369542      -1.15539251       0.00000000
Si       1.80374609       2.85221610       1.34708560       0.00000000
Si       3.13840208       0.77892264      -1.74927266       0.00000000
Si      -0.13443485       3.67376967       0.23669810       0.00000000
Si      -2.23381905       2.75706621       1.00691386       0.00000000
