10
Lattice="16.28999089631971 0.0 0.0 0.0 16.28999089631971 0.0 0.0 0.0 34.433804113860816" Properties=species:S:1:pos:R:3:initial_magmoms:R:1 pbc="T T T"
Si       2.25867366       0.66129255       0.34120476       0.00000000
Si       0.42647220      -1.40844643      -1.87967355       0.00000000
Si      -1.42169346       1.94369022      -0.60217870       0.00000000
Si      -0.43365609      -1.11926961       2.19105861       0.00000000
Si       2.07871803       2.68855047       1.42525038       0.00000000
Si       1.46811996      -0.44963984       3.39717214       0.00000000
Si       2.13886071      -2.94044993      -1.26434113       0.00000000
Si       3.30862932      -0.63633627       1.95511806       0.00000000
Si      -2.67204870       1.13226903      -2.63070967       0.00000000
Si      -1.41801192      -2.82588236      -2.31581236       0.00000000
