10
Lattice="16.28999089631971 0.0 0.0 0.0 16.28999089631971 0.0 0.0 0.0 34.433804113860816" Properties=species:S:1:pos:R:3:initial_magmoms:R:1 pbc="T T T"
Si      -0.43761456       2.14814601       0.82372592       0.00000000
Si      -2.24136065      -0.70407009      -0.52335968       0.00000000
Si       1.26420174      -1.27198836       1.60582135       0.00000000
Si       0.89704143       0.07485255      -2.27263234       0.00000000
Si       1.26627057      -2.29166254      -2.47954519       0.00000000
Si       1.63699839       3.30470343       0.49281688       0.00000000
Si      -0.73059021       1.35005004      -3.40877634       0.00000000
Si      -2.21569087      -3.01045879      -0.25677302       0.00000000
Si      -2.56309792      -0.00847080      -2.80955895       0.00000000
Si      -2.37579550       2.96969958      -0.28666158       0.00000000
