10
Lattice="16.28999089631971 0.0 0.0 0.0 16.28999089631971 0.0 0.0 0.0 34.433804113860816" Properties=species:S:1:pos:R:3:initial_magmoms:R:1 pbc="T T T"
Si      -0.74328012       1.11464488      -1.94213650       0.00000000
Si       1.19910690      -1.86377378      -0.82482780       0.00000000
Si      -1.71286092      -1.08284747       1.23183560       0.00000000
Si       0.88185915       1.76973420       1.33035077       0.00000000
Si      -0.87604362       3.32577129       0.77858318       0.00000000
Si      -0.48472524      -1.24229399       3.28591646       0.00000000
Si      -0.16895988      -2.46707393      -2.66965432       0.00000000
Si       0.13207932       1.08063950       3.48480623       0.00000000
Si       1.09722924       0.92794845      -3.38419059       0.00000000
Si      -2.67719634      -2.73976853      -0.15261071       0.00000000
