10
Lattice="16.28999089631971 0.0 0.0 0.0 16.28999089631971 0.0 0.0 0.0 34.433804113860816" Properties=species:S:1:pos:R:3:initial_magmoms:R:1 pbc="T T T"
Si       0.20665494       2.34475002      -0.16958658       0.00000000
Si      -1.10193705       0.02790477      -2.09130383       0.00000000
Si      -0.98324811      -0.45185202       2.10793536       0.00000000
Si       1.88906985      -1.37798250      -0.56020387       0.00000000
Si       0.88094691       0.86714928      -3.26642692       0.00000000
Si      -1.58560344      -2.74288481       1.74317787       0.00000000
Si      -1.78248438      -2.16822018      -2.46604713       0.00000000
Si       2.01178242       2.95700967       1.26199963       0.00000000
Si       2.63884968      -0.68888781      -2.71465933       0.00000000
Si      -2.59634907       1.14710922       2.66813924       0.00000000
