10
Lattice="16.28999089631971 0.0 0.0 0.0 16.28999089631971 0.0 0.0 0.0 34.433804113860816" Properties=species:S:1:pos:R:3:initial_magmoms:R:1 pbc="T T T"
Si       1.55470131      -0.56236664       1.69032195       0.00000000
Si       0.74977983       0.68909469      -2.15445546       0.00000000
Si      -1.88906985       1.37798250       0.56020387       0.00000000
Si      -0.61680456      -2.32293349      -0.19888976       0.00000000
Si      -1.84494024      -2.16348697      -2.25297063       0.00000000
Si      -2.99100690       1.40588727      -1.53109996       0.00000000
Si      -0.13207932      -1.08063950      -3.48480623       0.00000000
Si      -1.00812294       2.24513178      -2.70622305       0.00000000
Si      -1.42566822      -2.79061939       2.03744933       0.00000000
Si       3.53584224      -1.42040233       0.55503880       0.00000000
