10
Lattice="16.28999089631971 0.0 0.0 0.0 16.28999089631971 0.0 0.0 0.0 34.433804113860816" Properties=species:S:1:pos:R:3:initial_magmoms:R:1 pbc="T T T"
Si      -0.82406223       0.06239070      -2.24102209       0.00000000
Si       0.62887545       1.96928181       1.21907240       0.00000000
Si      -2.02155642      -0.73603759       1.15636152       0.00000000
Si       1.50226380      -1.94789956       0.15316995       0.00000000
Si       1.76932206       0.53048385       2.75706945       0.00000000
Si      -2.43716319       1.66135194      -1.68081822       0.00000000
Si       3.11404527      -0.76484156       1.38737115       0.00000000
Si      -2.44004652      -2.60704250      -0.42670394       0.00000000
Si      -0.94716576      -2.19610669       2.73766254       0.00000000
Si      -1.42641756      -2.22864209      -2.60577958       0.00000000
