10
Lattice="16.28999089631971 0.0 0.0 0.0 16.28999089631971 0.0 0.0 0.0 34.433804113860816" Properties=species:S:1:pos:R:3:initial_magmoms:R:1 pbc="T T T"
Si      -1.18504863       1.18640070       1.69538373       0.00000000
Si       0.37955700      -2.28851694       0.60514001       0.00000000
Si      -1.57219677       1.12560642      -1.49305058       0.00000000
Si       2.02626423       1.44021519       0.39829603       0.00000000
Si       1.43480691      -2.22042474      -1.52679573       0.00000000
Si      -1.92308337       2.80142388       0.15123335       0.00000000
Si       2.26385388      -0.40997043      -2.82563954       0.00000000
Si       0.25801731       3.61734111       0.78684730       0.00000000
Si      -0.25054020       2.48479515      -2.83676167       0.00000000
Si       2.65150701       0.81223569       2.71400509       0.00000000
