10
Lattice="16.28999089631971 0.0 0.0 0.0 16.28999089631971 0.0 0.0 0.0 34.433804113860816" Properties=species:S:1:pos:R:3:initial_magmoms:R:1 pbc="T T T"
Si      -1.75070259      -0.94081266       1.18968860       0.00000000
Si      -0.73803474       1.61502318      -1.54415037       0.00000000
Si       1.18504863      -1.18640070      -1.69538373       0.00000000
Si       0.03904713      -0.60659073       2.74661392       0.00000000
Si       1.44306594       2.43094041      -0.90853643       0.00000000
Si      -0.38714814      -0.06079428      -3.18843431       0.00000000
Si       2.20981995       0.46436274       2.53556902       0.00000000
Si       3.21131286       0.25381449      -1.29708769       0.00000000
Si      -3.51251496       0.67908123       1.62348590       0.00000000
Si       1.56460563      -3.47491764      -1.09024372       0.00000000
