10
Lattice="16.28999089631971 0.0 0.0 0.0 16.28999089631971 0.0 0.0 0.0 34.433804113860816" Properties=species:S:1:pos:R:3:initial_magmoms:R:1 pbc="T T T"
Si      -0.41445018      -0.93690306      -2.06024452       0.00000000
Si      -1.44976113       1.87304049       0.21307650       0.00000000
Si       1.96638219       1.35340578       0.25587774       0.00000000
Si      -1.57718151      -1.80869499       0.28387244       0.00000000
Si       0.49581873       3.18972861       0.51616301       0.00000000
Si      -1.15781175      -1.86396696       2.63239693       0.00000000
Si       2.65123008       1.20347262      -1.93631719       0.00000000
Si      -1.24747191       0.82013634      -3.31446210       0.00000000
Si      -1.18493460       0.32120622       3.53907393       0.00000000
Si      -2.50251867       2.14397577      -1.86968774       0.00000000
