10
Lattice="16.28999089631971 0.0 0.0 0.0 16.28999089631971 0.0 0.0 0.0 34.433804113860816" Properties=species:S:1:pos:R:3:initial_magmoms:R:1 pbc="T T T"
Si      -1.80512748      -0.61225965      -1.43158621       0.00000000
Si       2.07482472      -1.11319344      -0.52766391       0.00000000
Si       0.53335089       2.18507544      -1.00608745       0.00000000
Si       0.20168649      -0.48327543       2.79485571       0.00000000
Si       2.35473579       2.35134747       0.74198003       0.00000000
Si       3.39571566       0.11016927       1.09014041       0.00000000
Si      -1.49478669       3.37281192      -0.51158331       0.00000000
Si       0.71276895       1.57214790      -3.33698182       0.00000000
Si      -2.01178242      -2.95700967      -1.26199963       0.00000000
Si      -1.15795836       0.09531279      -3.62174954       0.00000000
