10
Lattice="16.28999089631971 0.0 0.0 0.0 16.28999089631971 0.0 0.0 0.0 34.433804113860816" Properties=species:S:1:pos:R:3:initial_magmoms:R:1 pbc="T T T"
Si      -1.07134443       0.64172826       1.96772084       0.00000000
Si       1.04945067       1.85173317      -1.09985075       0.00000000
Si      -1.83213630      -0.93827142      -1.24457611       0.00000000
Si       1.73784978      -1.76225220       0.00161839       0.00000000
Si      -2.17227150      -1.49900580       2.24357019       0.00000000
Si       2.23329384       0.44271333      -2.61211541       0.00000000
Si      -0.50453388      -2.30461146      -2.62712855       0.00000000
Si       1.42890993      -2.47570533       2.34652733       0.00000000
Si      -2.41694730       2.49442254       1.39763446       0.00000000
Si      -0.75219075      -3.29162256       1.71091338       0.00000000
