10
Lattice="16.28999089631971 0.0 0.0 0.0 16.28999089631971 0.0 0.0 0.0 34.433804113860816" Properties=species:S:1:pos:R:3:initial_magmoms:R:1 pbc="T T T"
Si       1.32760242      -1.36634004      -1.38255244       0.00000000
Si      -1.37039625       1.38719124      -1.36674732       0.00000000
Si       1.83213630       0.93827142       1.24457611       0.00000000
Si      -1.77218910      -0.80795142       1.42934801       0.00000000
Si      -0.34013520      -0.56073438       3.48814631       0.00000000
Si       0.76079187       1.57999968       3.21229695       0.00000000
Si      -2.74968684      -2.64166785       0.06507993       0.00000000
Si       2.68426620       0.01053963      -2.73263379       0.00000000
Si       2.75248872      -2.66997987      -0.03250553       0.00000000
Si      -0.02624319      -2.70314631      -2.73600830       0.00000000
