10
Lattice="16.28999089631971 0.0 0.0 0.0 16.28999089631971 0.0 0.0 0.0 34.433804113860816" Properties=species:S:1:pos:R:3:initial_magmoms:R:1 pbc="T T T"
Si      -0.61884081       1.53236772       1.63374718       0.00000000
Si      -0.30385737      -2.00409354       1.18831124       0.00000000
Si       2.37680874       0.04279383      -0.18032993       0.00000000
Si      -1.68766029       0.13427847      -1.71191196       0.00000000
Si       2.36081196       1.67355315      -1.91283332       0.00000000
Si       0.95118939      -3.32793297      -0.25646312       0.00000000
Si      -2.60037270      -2.04226101      -1.37959113       0.00000000
Si       1.39209453       2.17815219       2.64248604       0.00000000
Si      -2.54275497      -2.58264918       0.89207706       0.00000000
Si       3.09684303       0.73217034       2.00036410       0.00000000
