10
Lattice="16.28999089631971 0.0 0.0 0.0 16.28999089631971 0.0 0.0 0.0 34.433804113860816" Properties=species:S:1:pos:R:3:initial_magmoms:R:1 pbc="T T T"
Si       0.03806973       0.67808754       2.21877784       0.00000000
Si       0.40236300       1.69051104      -1.57379790       0.00000000
Si       1.47056346      -1.83632283      -0.26028527       0.00000000
Si      -1.94557986      -1.31668812      -0.30308651       0.00000000
Si      -0.49581873      -3.18972861      -0.51616301       0.00000000
Si      -1.30238550       3.13649289      -0.93167596       0.00000000
Si       0.18997398      -1.39168728       3.30767864       0.00000000
Si       2.65136040       2.38400892      -1.22859882       0.00000000
Si       1.72875996       2.30249376       2.45678443       0.00000000
Si       2.15541135      -1.98625599      -2.45248020       0.00000000
