10
Lattice="16.28999089631971 0.0 0.0 0.0 16.28999089631971 0.0 0.0 0.0 34.433804113860816" Properties=species:S:1:pos:R:3:initial_magmoms:R:1 pbc="T T T"
Si       1.07134443      -0.64172826      -1.96772084       0.00000000
Si       0.94438017       0.66350799       2.04337195       0.00000000
Si      -1.34560287       1.85269428      -0.57008638       0.00000000
Si      -1.10092707      -2.14073406       0.27584936       0.00000000
Si      -1.29042864       0.93805965       2.91396230       0.00000000
Si      -1.56747267       2.86355394       1.54711168       0.00000000
Si       2.50585812      -1.15347861       2.37758664       0.00000000
Si      -0.76079187      -1.57999968      -3.21229695       0.00000000
Si      -2.53298097      -2.38795110      -1.78294894       0.00000000
Si       2.12079510       1.21000491      -3.06757159       0.00000000
