10
Lattice="16.28999089631971 0.0 0.0 0.0 16.28999089631971 0.0 0.0 0.0 34.433804113860816" Properties=species:S:1:pos:R:3:initial_magmoms:R:1 pbc="T T T"
Si       0.51668622      -1.16434404      -1.99795373       0.00000000
Si       1.81317474       1.03680541       1.17753346       0.00000000
Si      -1.68464664       1.66994233      -0.51857338       0.00000000
Si      -1.06363926      -0.86050296       2.03765593       0.00000000
Si      -2.77602777       0.67150053       1.42232351       0.00000000
Si       1.94934285      -2.67276546      -0.63864412       0.00000000
Si       0.52466832       2.94815510       1.80781016       0.00000000
Si      -0.43124517       3.65720993      -0.36382778       0.00000000
Si      -2.10865905      -2.94598134       1.48244496       0.00000000
Si       1.62826695       0.39149091      -3.55556773       0.00000000
