10
Lattice="16.28999089631971 0.0 0.0 0.0 16.28999089631971 0.0 0.0 0.0 34.433804113860816" Properties=species:S:1:pos:R:3:initial_magmoms:R:1 pbc="T T T"
Si      -1.04756103      -1.49174046      -1.45396819       0.00000000
Si       2.26092168      -0.62747451      -0.22561041       0.00000000
Si      -0.21517461       2.28461453      -0.70420612       0.00000000
Si      -0.24731478      -0.90016911       2.29143321       0.00000000
Si       1.68660144       2.95424430       0.50190741       0.00000000
Si       1.90508292      -2.93443173       0.17471722       0.00000000
Si      -0.10585242      -3.58021620      -0.83402164       0.00000000
Si       0.71702064       0.75675195       3.67587951       0.00000000
Si       1.39794264      -2.59807581       2.43175104       0.00000000
Si      -3.04197831      -2.29762305      -0.42573979       0.00000000
