10
Lattice="16.28999089631971 0.0 0.0 0.0 16.28999089631971 0.0 0.0 0.0 34.433804113860816" Properties=species:S:1:pos:R:3:initial_magmoms:R:1 pbc="T T T"
Si       0.96433542       1.65692106       1.38444630       0.00000000
Si       1.64525742      -1.69790670       0.14031783       0.00000000
Si      -2.03545179      -0.98604999       0.91859111       0.00000000
Si       0.24731478       0.90016911      -2.29143321       0.00000000
Si       2.50823646       0.27269460      -2.51704362       0.00000000
Si      -0.86227857       3.03017036       1.73157368       0.00000000
Si       2.15239770      -2.03426262      -2.11671599       0.00000000
Si      -1.81514583      -3.33560556       0.49409093       0.00000000
Si       2.67719634       2.73976853       0.15261071       0.00000000
Si      -3.73977675      -0.50834574      -0.71859946       0.00000000
