10
Lattice="16.28999089631971 0.0 0.0 0.0 16.28999089631971 0.0 0.0 0.0 34.433804113860816" Properties=species:S:1:pos:R:3:initial_magmoms:R:1 pbc="T T T"
Si       1.62188127       1.55947428       0.59074667       0.00000000
Si      -1.46849463      -0.20691558       1.83539165       0.00000000
Si       1.28850642      -1.91134968      -0.63027670       0.00000000
Si      -0.95591349       0.70905483      -2.17163794       0.00000000
Si      -2.20931496      -1.27821277      -2.32638354       0.00000000
Si      -0.52466832      -2.94815510      -1.80781016       0.00000000
Si       2.89458639      -0.84233961      -1.97085431       0.00000000
Si       3.59517042       0.83553039      -0.42725488       0.00000000
Si      -0.41853897      -1.50454440       3.44930495       0.00000000
Si      -1.64845026       1.82034234       2.91943728       0.00000000
