10
Lattice="16.28999089631971 0.0 0.0 0.0 16.28999089631971 0.0 0.0 0.0 34.433804113860816" Properties=species:S:1:pos:R:3:initial_magmoms:R:1 pbc="T T T"
Si       1.34426709       1.34249148       1.39056519       0.00000000
Si      -1.37068947      -1.37383344       1.38884350       0.00000000
Si       1.36752921      -1.37042883      -1.49598090       0.00000000
Si      -1.32447474       1.47043314      -1.50700661       0.00000000
Si      -0.53541972      -2.12257071      -2.75473139       0.00000000
Si      -2.13394113      -0.24809670      -3.00210398       0.00000000
Si       2.68657938       2.69190621       0.01196575       0.00000000
Si      -2.74212828       2.68819209       0.00490338       0.00000000
Si       2.69668687      -2.73665484      -0.00155641       0.00000000
Si      -2.73727386      -2.70558981       0.04706759       0.00000000
