10
Lattice="16.28999089631971 0.0 0.0 0.0 16.28999089631971 0.0 0.0 0.0 34.433804113860816" Properties=species:S:1:pos:R:3:initial_magmoms:R:1 pbc="T T T"
Si      -1.41765354       1.21775895       1.51190999       0.00000000
Si      -0.80946639      -1.71852984      -1.49509737       0.00000000
Si       0.85529016       1.84586877      -1.31156509       0.00000000
Si       1.32447474      -1.47043314       1.50700661       0.00000000
Si      -2.55324573      -2.73722499       0.01607715       0.00000000
Si       2.67685425       2.65240296       0.05066248       0.00000000
Si      -2.87881767       2.46301542       0.02402792       0.00000000
Si      -0.99373887       3.52393425      -1.20977871       0.00000000
Si      -0.04553055       2.58704748       2.89082277       0.00000000
Si       0.78905502      -3.59300385      -1.24772478       0.00000000
