10
Lattice="16.28999089631971 0.0 0.0 0.0 16.28999089631971 0.0 0.0 0.0 34.433804113860816" Properties=species:S:1:pos:R:3:initial_magmoms:R:1 pbc="T T T"
Si      -1.29591837       1.39716072       1.34928937       0.00000000
Si       1.35449721       1.36283769      -1.35514312       0.00000000
Si      -1.36559070      -1.35135324      -1.35638274       0.00000000
Si       1.21847571      -1.49760486       1.36041149       0.00000000
Si      -2.61757494       0.03797199       2.69300046       0.00000000
Si       2.55430458      -0.15156216       2.78053124       0.00000000
Si       2.71736748      -2.69467551      -0.00378772       0.00000000
Si      -2.72323188      -2.69050527       0.01484098       0.00000000
Si      -0.00333945      -2.70808218      -2.71249000       0.00000000
Si      -2.72080467       2.70080055      -0.00075754       0.00000000
