10
Lattice="16.28999089631971 0.0 0.0 0.0 16.28999089631971 0.0 0.0 0.0 34.433804113860816" Properties=species:S:1:pos:R:3:initial_magmoms:R:1 pbc="T T T"
Si      -0.33036120       2.32723827       0.15584748       0.00000000
Si       2.01068189      -0.52918065       1.14912555       0.00000000
Si       0.12160485      -0.32314473      -2.35320749       0.00000000
Si      -2.02558005      -1.12433580       0.74383945       0.00000000
Si      -2.12677353      -1.27524636      -2.36229802       0.00000000
Si       1.20490029      -0.91463463       3.33625871       0.00000000
Si       2.84505569       1.05055839      -2.10163397       0.00000000
Si      -1.30706073      -3.42601506       0.56295858       0.00000000
Si       2.85010559      -2.53428417       0.21414395       0.00000000
Si      -1.64447550       1.30238550      -3.23137329       0.00000000
