10
Lattice="16.28999089631971 0.0 0.0 0.0 16.28999089631971 0.0 0.0 0.0 34.433804113860816" Properties=species:S:1:pos:R:3:initial_magmoms:R:1 pbc="T T T"
Si      -0.12160485       0.32314473       2.35320749       0.00000000
Si      -2.24837838      -0.95210163      -0.00909053       0.00000000
Si       1.24784073      -1.94694822      -0.88043843       0.00000000
Si      -1.76608035       1.62553023      -0.87816580       0.00000000
Si       2.72345084       1.37370312       0.25157351       0.00000000
Si      -0.77445918       3.53220957       0.32016569       0.00000000
Si      -0.45196605       2.65038300       2.50905497       0.00000000
Si      -2.87362116      -0.32412213      -2.32479958       0.00000000
Si      -1.94253363      -3.20243481       0.64442900       0.00000000
Si      -2.14718490      -0.80119107       3.09704694       0.00000000
