10
Lattice="16.28999089631971 0.0 0.0 0.0 16.28999089631971 0.0 0.0 0.0 34.433804113860816" Properties=species:S:1:pos:R:3:initial_magmoms:R:1 pbc="T T T"
Si       0.30584475      -2.25033318       0.65351953       0.00000000
Si      -1.62673569       0.83852775       1.51694765       0.00000000
Si       2.24837838       0.95210163       0.00909053       0.00000000
Si      -0.62524278       0.62797950      -2.31570905       0.00000000
Si       0.48229803       2.57763186      -0.86907527       0.00000000
Si       0.10119348       0.15091056       3.10613747       0.00000000
Si       2.12677353       1.27524636       2.36229802       0.00000000
Si       0.81971280      -2.15076870       2.92525660       0.00000000
Si       3.49621911      -0.99484659      -0.87134790       0.00000000
Si       2.27913390      -2.97427707      -0.36448202       0.00000000
