10
Lattice="16.28999089631971 0.0 0.0 0.0 16.28999089631971 0.0 0.0 0.0 34.433804113860816" Properties=species:S:1:pos:R:3:initial_magmoms:R:1 pbc="T T T"
Si      -0.68484789       0.14993316       2.19219493       0.00000000
Si       0.71851932      -2.30167926      -0.18088087       0.00000000
Si       2.02558005       1.12433580      -0.74383945       0.00000000
Si      -1.72792917       0.68761719      -1.58918982       0.00000000
Si      -0.10119348      -0.15091056      -3.10613747       0.00000000
Si       0.20465127      -2.40124374      -2.45261794       0.00000000
Si      -2.65123008      -1.20347262       1.93631719       0.00000000
Si       1.13109615      -0.70700229       3.36263502       0.00000000
Si      -3.06568026      -2.14037568      -0.12392733       0.00000000
Si      -2.15541135       1.98625599       2.45248020       0.00000000
