10
Lattice="16.28999089631971 0.0 0.0 0.0 16.28999089631971 0.0 0.0 0.0 34.433804113860816" Properties=species:S:1:pos:R:3:initial_magmoms:R:1 pbc="T T T"
Si       0.37670625      -2.02665519       1.05443254       0.00000000
Si      -2.22115779       0.70120305       0.27302579       0.00000000
Si       0.99272889       1.86144201       1.05618866       0.00000000
Si       0.87537573      -0.60036795      -2.12449803       0.00000000
Si      -0.94056831       0.25656750      -3.29493812       0.00000000
Si       2.72321463      -1.90669563       1.45493234       0.00000000
Si       3.16796747       1.86660594       0.26558808       0.00000000
Si      -2.37306204       2.77097787      -0.81587501       0.00000000
Si      -0.85910202      -1.98413829       3.08234370       0.00000000
Si      -2.40057585       1.31413059       2.60392016       0.00000000
