10
Lattice="16.28999089631971 0.0 0.0 0.0 16.28999089631971 0.0 0.0 0.0 34.433804113860816" Properties=species:S:1:pos:R:3:initial_magmoms:R:1 pbc="T T T"
Si      -1.32141222      -1.27493685       1.46070486       0.00000000
Si      -1.62885339       0.44083998      -1.75013351       0.00000000
Si       1.31972362       1.40724423       1.51517573       0.00000000
Si       0.55482178       0.32425245      -2.90580149       0.00000000
Si      -3.22436115      -2.02707873       0.20195437       0.00000000
Si       3.05881307      -1.53187902      -1.76404477       0.00000000
Si       2.81084669       0.92595618      -2.49259561       0.00000000
Si       0.00774544      -2.64116286       2.95512935       0.00000000
Si      -2.68894143       0.09549198       2.95668576       0.00000000
Si       2.72949443       0.08438220       2.96784577       0.00000000
