10
Lattice="16.28999089631971 0.0 0.0 0.0 16.28999089631971 0.0 0.0 0.0 34.433804113860816" Properties=species:S:1:pos:R:3:initial_magmoms:R:1 pbc="T T T"
Si       0.58098285       2.24360541      -0.39557576       0.00000000
Si       1.19926980      -0.91869084      -1.81187335       0.00000000
Si      -2.24899740      -0.69349788      -0.34519908       0.00000000
Si       0.93059883      -0.37269891       2.18661665       0.00000000
Si       2.99216905       2.11017402      -0.38583099       0.00000000
Si       3.10980077       0.44186625      -1.96424302       0.00000000
Si      -2.65136040      -2.38400892       1.22859882       0.00000000
Si      -0.92260044      -0.08151516       3.68538325       0.00000000
Si      -0.55645011       2.94954885      -2.40069173       0.00000000
Si      -3.95374590       0.75248397       0.29692286       0.00000000
