10
Lattice="16.28999089631971 0.0 0.0 0.0 16.28999089631971 0.0 0.0 0.0 34.433804113860816" Properties=species:S:1:pos:R:3:initial_magmoms:R:1 pbc="T T T"
Si       2.17523858       0.00516393      -0.79060058       0.00000000
Si       0.65489058      -0.63638514       2.15369792       0.00000000
Si      -0.99272889      -1.86144201      -1.05618866       0.00000000
Si      -1.11377988       2.16873657       0.67283691       0.00000000
Si      -1.67510070       2.53394208      -1.63405709       0.00000000
Si      -3.21388668      -1.16023896      -0.78316288       0.00000000
Si       1.87389150       0.59644206      -3.01147889       0.00000000
Si       3.27473702       1.49810985       0.61454045       0.00000000
Si      -1.57191984      -0.38103939       3.29579897       0.00000000
Si       2.35558843       1.03174344       2.71751734       0.00000000
