10
Lattice="16.28999089631971 0.0 0.0 0.0 16.28999089631971 0.0 0.0 0.0 34.433804113860816" Properties=species:S:1:pos:R:3:initial_magmoms:R:1 pbc="T T T"
Si       2.07306214      -0.14390586       1.11961577       0.00000000
Si      -1.21708521      -1.97943048       0.50686588       0.00000000
Si      -1.24784073       1.94694822       0.88043843       0.00000000
Si       2.70477205      -2.21443002       0.04507387       0.00000000
Si      -3.49621911       0.99484659       0.87134790       0.00000000
Si      -3.19037436      -1.25548659       1.52486743       0.00000000
Si       1.48066000      -0.26419122       3.44778987       0.00000000
Si       3.28539652       1.83466125       0.51898659       0.00000000
Si       1.47561010       3.32065134       1.13201194       0.00000000
Si       0.92447053      -1.95429501      -3.21171157       0.00000000
