10
Lattice="16.28999089631971 0.0 0.0 0.0 16.28999089631971 0.0 0.0 0.0 34.433804113860816" Properties=species:S:1:pos:R:3:initial_magmoms:R:1 pbc="T T T"
Si      -0.07775054       1.02933252       2.08954770       0.00000000
Si       0.75876214      -2.20327137       0.29957426       0.00000000
Si      -2.34650838      -0.11995956      -0.40049980       0.00000000
Si       1.44569678       1.62781083      -1.00009597       0.00000000
Si      -1.07445486      -3.39284699      -0.67631472       0.00000000
Si      -2.72321463       1.90669563      -1.45493234       0.00000000
Si       2.17827436       1.63103625       2.50275358       0.00000000
Si      -1.07559516       3.13175250       1.75495424       0.00000000
Si      -2.68245705      -1.98948141      -1.78274234       0.00000000
Si       0.98187160      -2.67830406       2.63704549       0.00000000
