10
Lattice="16.28999089631971 0.0 0.0 0.0 16.28999089631971 0.0 0.0 0.0 34.433804113860816" Properties=species:S:1:pos:R:3:initial_magmoms:R:1 pbc="T T T"
Si       1.00778085      -0.26751438      -2.05889751       0.00000000
Si       1.83177792       0.91219113       1.10923948       0.00000000
Si      -0.92913436      -1.94131188       0.98393479       0.00000000
Si      -1.69064299       1.76225220      -0.24841789       0.00000000
Si       0.47578203       2.16784062       2.48814193       0.00000000
Si      -2.25122003      -0.56115792       2.43741058       0.00000000
Si      -0.99118297       0.74624490      -3.20781646       0.00000000
Si       3.21356088       0.81606384      -1.73831861       0.00000000
Si       2.64647340       2.65722480      -0.25713059       0.00000000
Si      -0.88805749       3.47618826       1.14762286       0.00000000
