10
Lattice="16.28999089631971 0.0 0.0 0.0 16.28999089631971 0.0 0.0 0.0 34.433804113860816" Properties=species:S:1:pos:R:3:initial_magmoms:R:1 pbc="T T T"
Si       0.80258549       1.71393606       1.39604076       0.00000000
Si      -1.89477691      -0.89248023       1.21751860       0.00000000
Si       1.69064299      -1.76225220       0.24841789       0.00000000
Si      -0.27175304       1.20065445      -2.25898016       0.00000000
Si       0.69946002      -1.01600730      -2.95939856       0.00000000
Si       2.16642502       0.40558842       2.73655983       0.00000000
Si      -0.56057704      -2.32341012       2.68582848       0.00000000
Si       2.45133712       2.68253946      -0.02112598       0.00000000
Si       2.69842384      -2.02976658      -1.81047961       0.00000000
Si       3.52242091      -0.85006107       1.35765737       0.00000000
