10
Lattice="16.28999089631971 0.0 0.0 0.0 16.28999089631971 0.0 0.0 0.0 34.433804113860816" Properties=species:S:1:pos:R:3:initial_magmoms:R:1 pbc="T T T"
Si       1.35599589      -1.25564949      -1.37890246       0.00000000
Si      -1.36383953       1.30834764      -1.34051907       0.00000000
Si      -1.34915735      -1.36246302       1.32562989       0.00000000
Si       1.36049193       1.35355239       1.33093270       0.00000000
Si      -0.47578203      -2.16784062      -2.48814193       0.00000000
Si      -2.16642502      -0.40558842      -2.73655983       0.00000000
Si       2.17069137       0.48938418      -2.74527253       0.00000000
Si       0.28491210       2.27695104      -2.75768581       0.00000000
Si       0.00377928       2.70625770       2.68707440       0.00000000
Si      -2.70916551      -0.00540828       2.68590365       0.00000000
