10
Lattice="16.28999089631971 0.0 0.0 0.0 16.28999089631971 0.0 0.0 0.0 34.433804113860816" Properties=species:S:1:pos:R:3:initial_magmoms:R:1 pbc="T T T"
Si       1.35298224      -1.35242838      -1.35917188       0.00000000
Si      -1.35705474      -1.35754344       1.35679594       0.00000000
Si       1.35742941       1.35772263       1.35676151       0.00000000
Si      -1.35394661       1.35860229      -1.36085913       0.00000000
Si      -0.00478926       2.72106531      -2.68648902       0.00000000
Si       2.70130554       0.00884547      -2.72062327       0.00000000
Si       2.71283886       2.71433754      -0.00082641       0.00000000
Si      -2.71455317       0.00029322       2.71376405       0.00000000
Si       0.00032580       2.71482624       2.71403952       0.00000000
Si       2.71480995       0.00043983       2.71448716       0.00000000
