10
Lattice="16.28999089631971 0.0 0.0 0.0 16.28999089631971 0.0 0.0 0.0 34.433804113860816" Properties=species:S:1:pos:R:3:initial_magmoms:R:1 pbc="T T T"
Si      -1.35114214       1.35536058       1.35999829       0.00000000
Si      -1.35706837      -1.35698958      -1.35745018       0.00000000
Si       1.35781060       1.35754344      -1.35717471       0.00000000
Si       1.35750109      -1.35553977       1.36075583       0.00000000
Si      -2.71264405      -2.71544526       0.00027547       0.00000000
Si       0.00043006      -2.71482624      -2.71441830       0.00000000
Si       0.00049847       2.71511946      -2.71417726       0.00000000
Si       2.71491421       0.00043983      -2.71445273       0.00000000
Si      -2.71495723       0.00027693      -2.71445273       0.00000000
Si      -2.71810120      -0.00104256       2.71180132       0.00000000
