10
Lattice="16.28999089631971 0.0 0.0 0.0 16.28999089631971 0.0 0.0 0.0 34.433804113860816" Properties=species:S:1:pos:R:3:initial_magmoms:R:1 pbc="T T T"
Si       0.70371823      -2.09738637       0.77810111       0.00000000
Si      -0.89439593       0.36900108      -2.16774692       0.00000000
Si      -2.00279101       0.26476137       1.29023536       0.00000000
Si       1.78350088       1.60373421       0.54119640       0.00000000
Si      -0.39578021      -3.59033229      -0.62703992       0.00000000
Si      -2.18320276       2.33763129      -1.92209602       0.00000000
Si       0.92951392       0.35694648      -3.63259620       0.00000000
Si      -1.18664342      -0.34709103       3.58149640       0.00000000
Si       0.58260208       3.10971213       2.16678277       0.00000000
Si      -3.18347392       2.13115554       0.28638611       0.00000000
