10
Lattice="16.28999089631971 0.0 0.0 0.0 16.28999089631971 0.0 0.0 0.0 34.433804113860816" Properties=species:S:1:pos:R:3:initial_magmoms:R:1 pbc="T T T"
Si       1.34130721       1.35296755       1.36368271       0.00000000
Si       1.35841660      -1.35530426      -1.35755349       0.00000000
Si      -1.35851498       1.35459818      -1.35882754       0.00000000
Si      -1.36237571      -1.35396848       1.39184957       0.00000000
Si       2.64086639      -0.02669186       2.77588267       0.00000000
Si      -2.71195334       2.71213674       0.00234150       0.00000000
Si       2.71467638       2.71409154       0.00561271       0.00000000
Si       0.00019476       2.71444992      -2.71576121       0.00000000
Si      -2.71511360      -0.00052802      -2.71586452       0.00000000
Si       2.71557233       0.00021801      -2.71634659       0.00000000
