10
Lattice="16.28999089631971 0.0 0.0 0.0 16.28999089631971 0.0 0.0 0.0 34.433804113860816" Properties=species:S:1:pos:R:3:initial_magmoms:R:1 pbc="T T T"
Si      -0.96273900      -1.70113212      -1.31951586       0.00000000
Si      -1.25576352       1.43425305       1.39894294       0.00000000
Si       1.46829915      -1.25656173       1.40900450       0.00000000
Si       0.35647407       1.71890681      -1.63699571       0.00000000
Si       2.68211592       1.04788683      -1.76123294       0.00000000
Si      -2.61149063      -2.66973552       0.09765088       0.00000000
Si      -2.65979210       2.67875433      -0.07667035       0.00000000
Si      -2.59841464       0.09148464       2.76624464       0.00000000
Si       0.11284083      -2.62453077       2.76910265       0.00000000
Si       2.71116099      -2.68758936       0.05672284       0.00000000
