10
Lattice="16.28999089631971 0.0 0.0 0.0 16.28999089631971 0.0 0.0 0.0 34.40246978574605" Properties=species:S:1:pos:R:3:initial_magmoms:R:1 pbc="T T T"
Si       1.32458877       1.35121877       1.36072509       0.00000000
Si      -1.22290659       1.39035712      -1.43941734       0.00000000
Si      -1.39178502      -1.35829598       1.35673440       0.00000000
Si       1.38202731      -1.33835702      -1.42555658       0.00000000
Si      -2.11304106      -0.47337431      -2.65250862       0.00000000
Si      -0.43794036      -2.18858099      -2.67736579       0.00000000
Si       2.66294259      -2.70854150       0.01555337       0.00000000
Si       2.68552053      -0.00158602       2.71855693       0.00000000
Si      -2.72688084       2.68097961       0.00641262       0.00000000
Si       2.69384472       2.71737147      -0.02686490       0.00000000
