10
Lattice="16.28999089631971 0.0 0.0 0.0 16.28999089631971 0.0 0.0 0.0 34.40246978574605" Properties=species:S:1:pos:R:3:initial_magmoms:R:1 pbc="T T T"
Si       1.35720135      -1.35719158      -1.35762542       0.00000000
Si      -1.35733167       1.35795069      -1.35762542       0.00000000
Si       1.35713619       1.35782037       1.35807266       0.00000000
Si      -1.35930276      -1.35825206       1.35731580       0.00000000
Si      -0.00055386      -2.71290837      -2.71463160       0.00000000
Si      -2.71236645      -0.00037467       2.71521645       0.00000000
Si      -2.71313208       0.00293220      -2.71473481       0.00000000
Si       2.71463076      -2.71482520      -0.00048163       0.00000000
Si      -2.71534752      -2.71427945       0.00003440       0.00000000
Si       2.71536381       0.00130320      -2.71456280       0.00000000
