10
Lattice="16.28999089631971 0.0 0.0 0.0 16.28999089631971 0.0 0.0 0.0 34.40246978574605" Properties=species:S:1:pos:R:3:initial_magmoms:R:1 pbc="T T T"
Si       1.04703975       1.52036688      -1.47012156       0.00000000
Si      -1.50869835      -1.29433288      -1.46248421       0.00000000
Si      -0.97880094       0.94156689       2.12645225       0.00000000
Si       1.98428490      -2.82022484      -0.03736110       0.00000000
Si      -2.58274692      -2.28374627       0.48621038       0.00000000
Si      -3.04617624      -0.21525280       1.79618835       0.00000000
Si      -0.63983862      -3.48746324       1.31806256       0.00000000
Si       1.91697462       3.29354967       0.05088128       0.00000000
Si       2.50212771       0.06386657      -3.01083703       0.00000000
Si      -0.22372686      -2.65683614      -3.04038877       0.00000000
