10
Lattice="16.28999089631971 0.0 0.0 0.0 16.28999089631971 0.0 0.0 0.0 34.40246978574605" Properties=species:S:1:pos:R:3:initial_magmoms:R:1 pbc="T T T"
Si      -1.13265999       1.30041441      -1.58413141       0.00000000
Si      -1.71128079      -0.89567307       1.53961459       0.00000000
Si       0.62211510       2.13358275       1.14924955       0.00000000
Si       1.56335130      -1.38196215      -1.56218262       0.00000000
Si      -2.51428005       2.64813498      -0.24515214       0.00000000
Si      -2.58121566      -2.66885586       0.01861175       0.00000000
Si       1.63462005      -3.00447873       1.49588903       0.00000000
Si      -3.48402375       0.92264931       1.09135016       0.00000000
Si       2.71780731       2.61902475      -0.03828997       0.00000000
Si      -2.48145570      -0.06014268      -2.93019760       0.00000000
