10
Lattice="16.28999089631971 0.0 0.0 0.0 16.28999089631971 0.0 0.0 0.0 34.40246978574605" Properties=species:S:1:pos:R:3:initial_magmoms:R:1 pbc="T T T"
Si      -2.18372337      -1.07613369      -0.18938570       0.00000000
Si      -0.22188609       1.80957465      -1.67485078       0.00000000
Si      -0.24452919       0.35461701       2.48719675       0.00000000
Si       2.16487584      -1.24067898      -0.57682653       0.00000000
Si       0.73524915       0.33690978      -3.27294960       0.00000000
Si      -0.77224374       2.64018546       2.46394067       0.00000000
Si      -1.77675030      -3.16356687       0.79039719       0.00000000
Si       2.08143846      -3.31201764       0.48283893       0.00000000
Si      -2.23288659      -0.65842551       3.24941829       0.00000000
Si      -3.74306733      -0.36564534       1.39550256       0.00000000
