10
Lattice="16.28999089631971 0.0 0.0 0.0 16.28999089631971 0.0 0.0 0.0 34.40246978574605" Properties=species:S:1:pos:R:3:initial_magmoms:R:1 pbc="T T T"
Si      -1.73825703      -1.31276223      -0.95735246       0.00000000
Si      -0.96255981       1.29937185       1.75786398       0.00000000
Si       0.45507744       1.78294050      -1.52378945       0.00000000
Si       1.85660388      -1.67389524       0.15904271       0.00000000
Si       2.78897832       2.02305510      -1.28672189       0.00000000
Si       0.42717267       0.84577680      -3.68116953       0.00000000
Si      -3.24258966       0.27852642      -2.00356656       0.00000000
Si      -1.81402182      -0.08079840       3.44688858       0.00000000
Si       2.67706602      -1.94323410      -2.08513486       0.00000000
Si      -1.03347018      -2.45283417      -2.89569190       0.00000000
