10
Lattice="16.28999089631971 0.0 0.0 0.0 16.28999089631971 0.0 0.0 0.0 34.40246978574605" Properties=species:S:1:pos:R:3:initial_magmoms:R:1 pbc="T T T"
Si      -1.57271805       1.60808364      -0.59481904       0.00000000
Si       2.36534058      -0.01282023       0.29981769       0.00000000
Si      -0.39050388       0.00346977       2.35440314       0.00000000
Si      -0.81119313      -1.54836450      -1.67464436       0.00000000
Si      -1.81328877      -2.75053392       0.09608615       0.00000000
Si       1.30802184      -1.92526623      -2.59669987       0.00000000
Si       2.80614798      -2.04529095      -0.80828648       0.00000000
Si      -3.43113338      -1.10455974       0.90468225       0.00000000
Si      -3.65199808       0.41726835      -0.93192902       0.00000000
Si      -0.72125604       2.98825389      -2.28384364       0.00000000
