10
Lattice="16.28999089631971 0.0 0.0 0.0 16.28999089631971 0.0 0.0 0.0 34.40246978574605" Properties=species:S:1:pos:R:3:initial_magmoms:R:1 pbc="T T T"
Si      -0.90872136      -1.83071907       1.18077840       0.00000000
Si       1.81996767       0.85022397       1.25180922       0.00000000
Si       1.43228196       0.12727377      -1.88021888       0.00000000
Si      -1.67510070       1.71520668       0.02485717       0.00000000
Si       0.43794036       2.18858099       2.67736579       0.00000000
Si      -2.30694093      -0.54190314       2.66577216       0.00000000
Si      -1.88281449       2.40432811      -2.23322282       0.00000000
Si      -0.78496623       3.57893811       1.23794845       0.00000000
Si      -2.51387280      -2.93755941      -0.34831045       0.00000000
Si       2.86801740      -1.67894514      -2.18750191       0.00000000
