10
Lattice="16.28999089631971 0.0 0.0 0.0 16.28999089631971 0.0 0.0 0.0 34.40246978574605" Properties=species:S:1:pos:R:3:initial_magmoms:R:1 pbc="T T T"
Si      -1.36068741       1.35433335      -1.36065284       0.00000000
Si       1.35682668      -1.36055709      -1.36079045       0.00000000
Si      -1.37132478      -1.35707103       1.37530830       0.00000000
Si       1.35452979       1.36363168       1.40486004       0.00000000
Si       2.71114470      -2.71215468      -0.00540119       0.00000000
Si      -2.71375110       2.71221074      -0.00275220       0.00000000
Si       2.71446786       2.71219445       0.00264899       0.00000000
Si      -2.72306898      -2.70611109      -0.00154811       0.00000000
Si      -0.00138465       2.71258541      -2.71796864       0.00000000
Si       2.71324611      -0.00223980      -2.71845028       0.00000000
