10
Lattice="16.28999089631971 0.0 0.0 0.0 16.28999089631971 0.0 0.0 0.0 34.40246978574605" Properties=species:S:1:pos:R:3:initial_magmoms:R:1 pbc="T T T"
Si       2.36786553       0.10943622      -0.02752199       0.00000000
Si       0.15206715      -1.56105441      -1.83984511       0.00000000
Si      -0.80526357      -1.61547930       1.66924317       0.00000000
Si      -1.11589758       1.88011035       1.29353359       0.00000000
Si      -3.15426528       0.77173875       0.88772183       0.00000000
Si       0.43564347       1.89749178       3.08119012       0.00000000
Si      -3.19383369       0.54775125      -1.79611955       0.00000000
Si       3.23434692      -1.28749644       1.77059290       0.00000000
Si      -1.48255290       1.44342432      -3.33573414       0.00000000
Si       2.04014331       0.07726347       3.40815138       0.00000000
