10
Lattice="16.28999089631971 0.0 0.0 0.0 16.28999089631971 0.0 0.0 0.0 34.40246978574605" Properties=species:S:1:pos:R:3:initial_magmoms:R:1 pbc="T T T"
Si       1.49103999      -1.13595057      -1.36763999       0.00000000
Si       1.35829278       1.34819298       1.33932330       0.00000000
Si      -1.28925576       1.34470692      -1.41603397       0.00000000
Si      -1.35369900      -1.36938627       1.33608947       0.00000000
Si      -2.10127968      -0.59955345      -2.51912295       0.00000000
Si      -0.17956467      -2.15125740      -2.63009540       0.00000000
Si       0.38437884       2.28296205      -2.83051436       0.00000000
Si       2.23376625       0.53124948      -2.90028261       0.00000000
Si       0.00417024       2.70342324       2.69646709       0.00000000
Si      -2.71039536      -0.00889434       2.69639828       0.00000000
