10
Lattice="16.28999089631971 0.0 0.0 0.0 16.28999089631971 0.0 0.0 0.0 34.40246978574605" Properties=species:S:1:pos:R:3:initial_magmoms:R:1 pbc="T T T"
Si      -0.17202240       0.37444194       2.42035271       0.00000000
Si       2.09569221       0.48544200      -1.18753952       0.00000000
Si      -0.62211510      -2.13358275      -1.14924955       0.00000000
Si      -1.60164909       1.95203070      -0.27577035       0.00000000
Si      -1.75477509      -0.83316834      -2.73338096       0.00000000
Si       0.98591967       1.88799471      -2.72364506       0.00000000
Si      -3.13639515       0.51455223      -1.39440168       0.00000000
Si       3.40819380       0.87366528       0.76349444       0.00000000
Si      -0.15850170       3.41218485      -1.38322088       0.00000000
Si      -2.33339589      -3.02925582       0.39036504       0.00000000
