10
Lattice="16.28999089631971 0.0 0.0 0.0 16.28999089631971 0.0 0.0 0.0 34.40246978574605" Properties=species:S:1:pos:R:3:initial_magmoms:R:1 pbc="T T T"
Si       0.78952743      -2.16174816       0.24969327       0.00000000
Si       0.94952781       1.13588541      -1.86819276       0.00000000
Si      -2.24090127      -0.89311554       0.23851246       0.00000000
Si       1.35190710       1.95076008       0.70459738       0.00000000
Si      -0.60890391       3.44145798       0.28468060       0.00000000
Si       0.83691504      -0.41993991      -3.59186067       0.00000000
Si      -0.42696090      -3.42863775      -1.36639806       0.00000000
Si       3.08183994       1.85285718      -1.02942568       0.00000000
Si      -3.30636501       0.85946040       1.60439448       0.00000000
Si      -0.27929205      -1.10713356       3.62099958       0.00000000
