10
Lattice="16.28999089631971 0.0 0.0 0.0 16.28999089631971 0.0 0.0 0.0 34.40246978574605" Properties=species:S:1:pos:R:3:initial_magmoms:R:1 pbc="T T T"
Si       1.35412254      -1.35523026      -1.35714379       0.00000000
Si       1.35537687       1.35829278       1.35731580       0.00000000
Si      -1.35887922      -1.35681039       1.35748781       0.00000000
Si      -1.35910728       1.35588186      -1.36034322       0.00000000
Si      -0.00417024      -2.70342324      -2.69646709       0.00000000
Si       2.71244790      -2.71331127      -0.00061924       0.00000000
Si      -2.71456560      -2.71231758      -0.00006880       0.00000000
Si       2.71314837       0.00115659       2.71490682       0.00000000
Si      -0.00195480      -2.71381626       2.71525085       0.00000000
Si       2.71362078       2.71603170       0.00041283       0.00000000
