10
Lattice="16.28999089631971 0.0 0.0 0.0 16.28999089631971 0.0 0.0 0.0 34.40246978574605" Properties=species:S:1:pos:R:3:initial_magmoms:R:1 pbc="T T T"
Si      -1.14442137       1.52419014       1.34042418       0.00000000
Si       1.34584722       1.34047152      -1.35600851       0.00000000
Si       1.10977254      -1.40255271       1.53610554       0.00000000
Si      -1.37573937      -1.36953288      -1.35325631       0.00000000
Si      -0.98591967      -1.88799471       2.72364506       0.00000000
Si      -2.58756876       0.06403599       2.44787470       0.00000000
Si       2.68076385      -2.71854036       0.03495293       0.00000000
Si       2.70319518       2.70591561       0.02886369       0.00000000
Si       2.69806383      -0.00755856      -2.71359953       0.00000000
Si      -0.01966203       2.70503595      -2.71191381       0.00000000
