10
Lattice="16.28999089631971 0.0 0.0 0.0 16.28999089631971 0.0 0.0 0.0 34.40246978574605" Properties=species:S:1:pos:R:3:initial_magmoms:R:1 pbc="T T T"
Si      -1.46860866      -1.38012138       1.13356201       0.00000000
Si       0.45652725      -1.13269257      -1.98884229       0.00000000
Si      -0.73381563       2.22000120      -0.29073543       0.00000000
Si       1.93254786      -0.37981764       1.30079251       0.00000000
Si      -1.02780126      -3.41259210       0.02545784       0.00000000
Si      -0.85125024      -0.89239878       3.42841444       0.00000000
Si       3.50658540       1.09794600       0.45394084       0.00000000
Si       0.89718804      -3.38209722      -1.32081476       0.00000000
Si      -1.73604159      -1.35231435      -3.04892059       0.00000000
Si       0.05828562       2.92278438      -2.38729192       0.00000000
