10
Lattice="16.28999089631971 0.0 0.0 0.0 16.28999089631971 0.0 0.0 0.0 34.40246978574605" Properties=species:S:1:pos:R:3:initial_magmoms:R:1 pbc="T T T"
Si       1.37642355       1.32701761      -1.35506932       0.00000000
Si       1.35664749      -1.35511895       1.35728140       0.00000000
Si      -1.35806472      -1.33722590      -1.37782313       0.00000000
Si      -1.35593073       1.36072162       1.35717819       0.00000000
Si       0.08058663       2.67363046      -2.70746900       0.00000000
Si       2.71151937      -2.71225798      -0.00474754       0.00000000
Si      -2.71632655      -2.71211137      -0.00571081       0.00000000
Si      -0.00014661      -2.71442455       2.71414997       0.00000000
Si       2.71440270       0.00059784       2.71428758       0.00000000
Si      -2.71550716       0.00097577       2.71408116       0.00000000
