10
Lattice="16.28999089631971 0.0 0.0 0.0 16.28999089631971 0.0 0.0 0.0 34.40246978574605" Properties=species:S:1:pos:R:3:initial_magmoms:R:1 pbc="T T T"
Si       0.47644992      -0.18790515      -2.30933588       0.00000000
Si       0.55959408       1.90469196       1.34964405       0.00000000
Si      -2.30734818      -0.70048629      -0.18171395       0.00000000
Si       1.96081101      -1.49069790       0.41991678       0.00000000
Si       0.60890391      -3.44145798      -0.28468060       0.00000000
Si       1.55843172      -2.30557257      -2.15287336       0.00000000
Si       1.01009403       0.53916642       3.36821009       0.00000000
Si       2.88676719      -0.49319604       2.37621432       0.00000000
Si       2.15049177       3.22778205      -0.21532518       0.00000000
Si      -1.45609794       0.19191249      -3.61012839       0.00000000
