10
Lattice="16.28999089631971 0.0 0.0 0.0 16.28999089631971 0.0 0.0 0.0 34.40246978574605" Properties=species:S:1:pos:R:3:initial_magmoms:R:1 pbc="T T T"
Si      -0.92175336      -1.33007850      -1.78500754       0.00000000
Si       2.10256659      -0.39923532       1.16841173       0.00000000
Si      -1.98518085       0.67171815       1.34919681       0.00000000
Si       1.47820347       1.25291277      -1.73113325       0.00000000
Si      -3.32203599      -1.31756778       0.92054180       0.00000000
Si      -2.36490075      -2.79023265      -0.67755702       0.00000000
Si      -3.02933727       2.40469722      -0.09966401       0.00000000
Si       2.54428623       2.91475341      -0.39094989       0.00000000
Si       1.74607623      -1.39439142       3.29004763       0.00000000
Si      -2.49660540      -0.14869512      -3.12068418       0.00000000
