10
Lattice="16.28999089631971 0.0 0.0 0.0 16.28999089631971 0.0 0.0 0.0 34.40246978574605" Properties=species:S:1:pos:R:3:initial_magmoms:R:1 pbc="T T T"
Si       0.91080648       1.25845137      -1.73760091       0.00000000
Si       1.46978154      -0.58769433       1.72683294       0.00000000
Si      -1.76322960       1.03579965       1.15365307       0.00000000
Si      -1.02597678      -1.95349680      -0.85383537       0.00000000
Si      -1.35246096      -2.87731899       1.25820223       0.00000000
Si      -3.07291302       1.36096434      -0.80178441       0.00000000
Si       0.94993506      -2.86804998       1.73959626       0.00000000
Si      -2.47138848      -0.96646941       2.28116024       0.00000000
Si       1.67283639       3.06725943      -0.44179676       0.00000000
Si      -3.12165270      -0.94286520      -1.35948316       0.00000000
