10
Lattice="16.28999089631971 0.0 0.0 0.0 16.28999089631971 0.0 0.0 0.0 34.40246978574605" Properties=species:S:1:pos:R:3:initial_magmoms:R:1 pbc="T T T"
Si      -1.30437339       1.37743353      -1.29537068       0.00000000
Si       1.32673107       1.37121075       1.34426006       0.00000000
Si      -1.38214185      -1.34513046       1.34140465       0.00000000
Si       1.55957381      -1.21096602      -1.34763838       0.00000000
Si      -2.60889288       0.02624319      -2.64912926       0.00000000
Si       0.22921838      -2.62777248      -2.62748631       0.00000000
Si       0.07227384       2.53298097      -2.78948939       0.00000000
Si       2.68854086       0.01397682       2.70088781       0.00000000
Si      -0.02527585      -2.70212004       2.70202309       0.00000000
Si       2.71199846      -2.71122615      -0.00835636       0.00000000
