10
Lattice="16.28999089631971 0.0 0.0 0.0 16.28999089631971 0.0 0.0 0.0 34.40246978574605" Properties=species:S:1:pos:R:3:initial_magmoms:R:1 pbc="T T T"
Si      -0.79210125      -0.70278318       2.09655649       0.00000000
Si      -0.86195277      -0.57814839      -2.10739327       0.00000000
Si      -0.69224355       2.23593282       0.36652412       0.00000000
Si       2.36659491       0.16236243      -0.41682056       0.00000000
Si       0.42976278       2.96703195      -1.51140455       0.00000000
Si      -0.15379389       1.42412067      -3.23490044       0.00000000
Si       2.50401735       2.49308676      -0.37815216       0.00000000
Si       0.48231432       0.73495593       3.46161285       0.00000000
Si      -3.08768805       0.11479563       2.03920754       0.00000000
Si       0.27217332       2.86359208       2.40607568       0.00000000
