10
Lattice="16.28999089631971 0.0 0.0 0.0 16.28999089631971 0.0 0.0 0.0 34.40246978574605" Properties=species:S:1:pos:R:3:initial_magmoms:R:1 pbc="T T T"
Si       1.85007552      -0.47248656       1.40836910       0.00000000
Si       0.44403282      -1.22969300      -1.99771813       0.00000000
Si       0.06825510       2.39388392      -0.32809654       0.00000000
Si      -1.91941812      -1.27132373       0.74340339       0.00000000
Si       1.86325576      -2.85857313      -1.00155966       0.00000000
Si      -1.12780557       2.54979551      -2.32309688       0.00000000
Si      -3.02661684       1.25783561      -1.85315888       0.00000000
Si       1.02891291      -0.58564668       3.60369513       0.00000000
Si      -3.72451302      -0.70133826      -0.67762583       0.00000000
Si      -2.48912829      -0.83678635       2.95242161       0.00000000
