10
Lattice="16.28999089631971 0.0 0.0 0.0 16.28999089631971 0.0 0.0 0.0 34.40246978574605" Properties=species:S:1:pos:R:3:initial_magmoms:R:1 pbc="T T T"
Si       1.19728242      -1.82376324      -0.85214965       0.00000000
Si      -2.20553568       0.42034716      -0.70060669       0.00000000
Si      -0.27940608       0.27339507       2.33083744       0.00000000
Si       1.64551806       1.62689859      -0.48486868       0.00000000
Si       1.65051909      -1.06613163      -3.09656804       0.00000000
Si      -2.51499681      -0.85196700      -2.60946319       0.00000000
Si      -2.49535107       0.98903106       2.60695181       0.00000000
Si       1.29117798       1.92668346       3.02009130       0.00000000
Si       2.93219904      -2.36383375       0.64965660       0.00000000
Si       1.54634454       3.34710630       1.10772574       0.00000000
