10
Lattice="16.28999089631971 0.0 0.0 0.0 16.28999089631971 0.0 0.0 0.0 34.40246978574605" Properties=species:S:1:pos:R:3:initial_magmoms:R:1 pbc="T T T"
Si      -1.33665966      -1.36427121       1.37701467       0.00000000
Si       1.37683080       1.35509994       1.37608580       0.00000000
Si       1.47149199      -1.29679803      -1.36842437       0.00000000
Si      -1.43325936       1.33144686      -1.42847735       0.00000000
Si       0.15007977       2.72647359      -2.61444811       0.00000000
Si      -2.68757307      -2.71163340      -0.00895841       0.00000000
Si      -2.69847108      -0.00096111       2.73584418       0.00000000
Si      -2.70477531       2.73163752       0.00161692       0.00000000
Si       0.01923849       2.71586880       2.73629141       0.00000000
Si       0.01803303      -2.71669959       2.73656663       0.00000000
