10
Lattice="16.28999089631971 0.0 0.0 0.0 16.28999089631971 0.0 0.0 0.0 34.40246978574605" Properties=species:S:1:pos:R:3:initial_magmoms:R:1 pbc="T T T"
Si      -1.33578000      -1.35796698      -1.37678761       0.00000000
Si       1.37717289       1.35866745      -1.37726925       0.00000000
Si       1.27741293      -1.25004573       1.57154010       0.00000000
Si      -1.36878354       1.39220856       1.40792186       0.00000000
Si       0.37460484       2.34145944       2.64427851       0.00000000
Si       2.14734780       0.52313706       3.09254294       0.00000000
Si      -2.68769687      -2.71451021       0.01768288       0.00000000
Si      -2.69674597       2.73326652      -0.00653647       0.00000000
Si      -2.69610577       0.00070047      -2.73479146       0.00000000
Si       2.73250089      -2.70654603       0.03082463       0.00000000
