10
Lattice="16.28999089631971 0.0 0.0 0.0 16.28999089631971 0.0 0.0 0.0 34.40246978574605" Properties=species:S:1:pos:R:3:initial_magmoms:R:1 pbc="T T T"
Si      -0.50518548       2.26595529      -0.51665658       0.00000000
Si      -1.25729478      -0.68976747      -1.92134461       0.00000000
Si       2.45926872      -0.19632708       0.15948994       0.00000000
Si      -0.81528192      -1.16527257       2.11644112       0.00000000
Si       0.14607243       1.01612133       3.18164539       0.00000000
Si       1.68612903       2.92506498      -0.99949551       0.00000000
Si       0.08827551      -3.24443043       1.41411431       0.00000000
Si       2.31436917      -2.45733021       1.14291949       0.00000000
Si      -3.01682655      -1.85808627      -0.84299859       0.00000000
Si       0.34104744      -1.75764213      -3.30759290       0.00000000
