10
Lattice="16.28999089631971 0.0 0.0 0.0 16.28999089631971 0.0 0.0 0.0 34.40246978574605" Properties=species:S:1:pos:R:3:initial_magmoms:R:1 pbc="T T T"
Si      -2.19131451      -0.65910969       0.48283893       0.00000000
Si      -0.05015691       2.32435494      -0.31894548       0.00000000
Si       1.45471329      -0.80290152       1.72707375       0.00000000
Si       0.20328291      -0.87886179      -2.55775625       0.00000000
Si       2.06295975       2.34427761      -1.30880829       0.00000000
Si       0.77313969      -3.12139206       1.15898545       0.00000000
Si      -1.68612903      -2.92506498       0.99949551       0.00000000
Si      -3.48970896       0.24423597      -1.41934349       0.00000000
Si      -0.57093192       3.41213598       1.71585854       0.00000000
Si       3.49937612       0.33953247      -1.64836086       0.00000000
