10
Lattice="16.28999089631971 0.0 0.0 0.0 16.28999089631971 0.0 0.0 0.0 34.40246978574605" Properties=species:S:1:pos:R:3:initial_magmoms:R:1 pbc="T T T"
Si      -1.35724462      -1.35732738       1.35652454       0.00000000
Si       1.35837398       1.35758424       1.35662775       0.00000000
Si      -1.35880846       1.35510490      -1.36144410       0.00000000
Si       1.35755460      -1.35550290      -1.36316422       0.00000000
Si      -2.71335454       2.71495175      -0.00027522       0.00000000
Si       0.00142479       2.71487030       2.71394355       0.00000000
Si       0.00109142      -2.71495227       2.71408116       0.00000000
Si      -2.71547224       0.00017744       2.71394355       0.00000000
Si      -2.71431565      -2.71531065      -0.00058484       0.00000000
Si       2.71573498       0.00011843       2.71449399       0.00000000
