10
Lattice="16.28999089631971 0.0 0.0 0.0 16.28999089631971 0.0 0.0 0.0 34.40246978574605" Properties=species:S:1:pos:R:3:initial_magmoms:R:1 pbc="T T T"
Si       0.58108059       1.85440473      -1.31548237       0.00000000
Si       0.54143073      -1.99948347      -1.12310366       0.00000000
Si      -2.34734013       0.15918588       0.36077890       0.00000000
Si       1.21575528      -0.33793605       2.04698250       0.00000000
Si      -1.58488668      -3.01954698      -0.85748204       0.00000000
Si       2.84133668       1.44536283      -1.69435699       0.00000000
Si      -2.48095071      -0.02834460       2.65439284       0.00000000
Si      -0.46946151      -0.70977159       3.63496699       0.00000000
Si      -3.41635509      -1.61209098      -0.72448202       0.00000000
Si       2.06236191      -3.31009542       0.21312342       0.00000000
