10
Lattice="16.28999089631971 0.0 0.0 0.0 16.28999089631971 0.0 0.0 0.0 34.40246978574605" Properties=species:S:1:pos:R:3:initial_magmoms:R:1 pbc="T T T"
Si      -0.13361058      -0.18753048       2.29361394       0.00000000
Si      -1.06901496      -1.77127686      -1.08526092       0.00000000
Si      -1.21531545       1.79967033      -0.96443938       0.00000000
Si       2.34734013      -0.15918588      -0.36077890       0.00000000
Si      -1.02253959      -0.84242106      -3.19657607       0.00000000
Si       0.76245345      -3.17873286      -1.21826094       0.00000000
Si      -0.50269311       1.43793459      -3.20933939       0.00000000
Si      -0.80557308       1.91770767       3.01001137       0.00000000
Si       2.92842072       1.69521885      -1.67626128       0.00000000
Si       1.87787862      -0.86895747       3.27418809       0.00000000
