10
Lattice="16.28999089631971 0.0 0.0 0.0 16.28999089631971 0.0 0.0 0.0 34.40246978574605" Properties=species:S:1:pos:R:3:initial_magmoms:R:1 pbc="T T T"
Si      -1.46404746       1.18467396       1.30989541       0.00000000
Si       1.28021481      -1.53174870       1.29644404       0.00000000
Si       0.93014271       1.62232110      -1.47534528       0.00000000
Si      -1.24641306      -1.33983621      -1.55195962       0.00000000
Si       2.22899328      -0.53467038      -2.40417808       0.00000000
Si       0.63026010      -2.37219867      -2.54395539       0.00000000
Si       2.61752607       2.54549169      -0.06215154       0.00000000
Si      -0.08680941       2.53739556       2.65513594       0.00000000
Si       2.62679508      -0.18179640       2.65737210       0.00000000
Si      -2.74496274       2.55485844      -0.13121453       0.00000000
