10
Lattice="16.28999089631971 0.0 0.0 0.0 16.28999089631971 0.0 0.0 0.0 34.40246978574605" Properties=species:S:1:pos:R:3:initial_magmoms:R:1 pbc="T T T"
Si      -1.92338052      -1.14328107       0.67009168       0.00000000
Si       1.40032424      -0.16417062       1.87435081       0.00000000
Si      -0.75961085       2.23203951      -0.30958800       0.00000000
Si       1.14007520      -0.44922933      -2.08692379       0.00000000
Si       3.06330518       1.03672818      -1.02447172       0.00000000
Si      -2.48576019       0.30641490       2.44154465       0.00000000
Si      -3.11944119      -0.98736948      -1.32490866       0.00000000
Si       1.74417356      -2.54019744       1.86592220       0.00000000
Si       3.20887262       1.23421185       1.37695962       0.00000000
Si      -2.34086064       2.56741803       1.45811509       0.00000000
