10
Lattice="16.28999089631971 0.0 0.0 0.0 16.28999089631971 0.0 0.0 0.0 34.40246978574605" Properties=species:S:1:pos:R:3:initial_magmoms:R:1 pbc="T T T"
Si       2.14337304       0.01391166      -0.93430280       0.00000000
Si      -1.35620766       1.14853689      -1.55478609       0.00000000
Si      -0.95101020      -2.16236718       0.28949695       0.00000000
Si       0.02871927       0.02414178       2.47687600       0.00000000
Si      -0.17904339      -2.32968177       2.51396188       0.00000000
Si      -3.45517416       0.42082513      -0.86205757       0.00000000
Si       3.28445496      -1.42043913       0.59647035       0.00000000
Si      -3.24503316      -1.70781102       0.19347960       0.00000000
Si       2.76152967       2.31652664      -0.76480173       0.00000000
Si      -1.22333013       0.05031981      -3.64628541       0.00000000
