10
Lattice="16.28999089631971 0.0 0.0 0.0 16.28999089631971 0.0 0.0 0.0 34.40246978574605" Properties=species:S:1:pos:R:3:initial_magmoms:R:1 pbc="T T T"
Si       2.10844728       0.54644872       0.90681521       0.00000000
Si      -0.20776266      -2.35382355       0.03708588       0.00000000
Si      -1.14805404       1.42152146       1.56479721       0.00000000
Si      -0.02871927      -0.02414178      -2.47687600       0.00000000
Si       1.08203067       2.53003967       1.54959131       0.00000000
Si      -0.97972947      -2.18650896      -2.18737906       0.00000000
Si       2.00269260      -3.04828254      -0.59031231       0.00000000
Si      -1.08519093      -0.14608872       3.55188498       0.00000000
Si      -2.98699956       2.32126703       0.31433554       0.00000000
Si       2.11465377      -0.01023012      -3.41117880       0.00000000
