10
Lattice="16.28999089631971 0.0 0.0 0.0 16.28999089631971 0.0 0.0 0.0 34.40246978574605" Properties=species:S:1:pos:R:3:initial_magmoms:R:1 pbc="T T T"
Si       1.35694920      -1.35728606      -1.35731580       0.00000000
Si      -1.35778975       1.35708732      -1.35690297       0.00000000
Si       1.35696549       1.35782037       1.35772863       0.00000000
Si      -1.35914182      -1.35624513       1.35858869       0.00000000
Si      -0.00142479      -2.71487030      -2.71394355       0.00000000
Si      -0.00210337       2.71450044       2.71435638       0.00000000
Si       0.00088444       2.71489140      -2.71408116       0.00000000
Si      -2.71477933       0.00008145      -2.71421877       0.00000000
Si       2.71431019      -2.71475186       0.00055044       0.00000000
Si       2.71434277       2.71497285       0.00006880       0.00000000
