10
Lattice="16.28999089631971 0.0 0.0 0.0 16.28999089631971 0.0 0.0 0.0 34.40246978574605" Properties=species:S:1:pos:R:3:initial_magmoms:R:1 pbc="T T T"
Si      -1.35462916      -1.34042265       1.37121441       0.00000000
Si      -1.35473667       1.35698958      -1.35958637       0.00000000
Si       1.36129014      -1.35861858      -1.35762542       0.00000000
Si       1.34604270       1.37101527       1.36357705       0.00000000
Si       2.68646535      -0.00674406       2.68552710       0.00000000
Si      -2.70265088       2.70549207      -0.00161692       0.00000000
Si      -2.71063541      -0.00063531      -2.71525085       0.00000000
Si       0.00322542       2.71309950      -2.71497563       0.00000000
Si      -2.71305782      -2.71630863      -0.00041283       0.00000000
Si       0.00338832      -2.71583622      -2.71470041       0.00000000
