10
Lattice="16.28999089631971 0.0 0.0 0.0 16.28999089631971 0.0 0.0 0.0 34.40246978574605" Properties=species:S:1:pos:R:3:initial_magmoms:R:1 pbc="T T T"
Si       1.44699835      -1.23758388       1.38893169       0.00000000
Si      -1.33307891      -1.37569050      -1.38033107       0.00000000
Si       1.36659091       1.35883035      -1.37654679       0.00000000
Si      -1.87408372       0.84132963       1.42312776       0.00000000
Si       0.03354437      -2.58835068       2.65735146       0.00000000
Si      -2.70322843       2.69519679       0.01782049       0.00000000
Si      -2.69485537      -2.72831436      -0.00674289       0.00000000
Si       2.71561468      -2.71016730      -0.01513710       0.00000000
Si       2.71833511       2.70787041       0.00030962       0.00000000
Si      -2.69768983      -0.00819387      -2.73327775       0.00000000
