10
Lattice="16.28999089631971 0.0 0.0 0.0 16.28999089631971 0.0 0.0 0.0 34.40246978574605" Properties=species:S:1:pos:R:3:initial_magmoms:R:1 pbc="T T T"
Si       1.35580041       1.35501849       1.35710939       0.00000000
Si      -1.36065809       1.35283563      -1.35786624       0.00000000
Si       1.35593073      -1.36072162      -1.35717819       0.00000000
Si      -1.35957643      -1.35974585       1.35690297       0.00000000
Si       0.02163312       2.70332550      -2.71024185       0.00000000
Si      -2.69943366       0.00377928      -2.72645918       0.00000000
Si      -0.00218286       2.71251306       2.71428758       0.00000000
Si       2.71313208      -0.00293220       2.71473481       0.00000000
Si      -2.71564119       2.71243161       0.00013761       0.00000000
Si       2.71257822      -2.71584057       0.00010321       0.00000000
