10
Lattice="16.28999089631971 0.0 0.0 0.0 16.28999089631971 0.0 0.0 0.0 34.40246978574605" Properties=species:S:1:pos:R:3:initial_magmoms:R:1 pbc="T T T"
Si       1.06678812       0.53190108      -2.03779703       0.00000000
Si       1.97089941      -0.55539126       1.18427128       0.00000000
Si      -1.77012257      -1.62689859       0.21783656       0.00000000
Si      -0.89981741       1.86396696       1.33030985       0.00000000
Si       0.58748256      -1.87998003       2.77216086       0.00000000
Si       0.92894214       2.95052625      -1.68692605       0.00000000
Si      -0.74287287      -3.29678649       1.49231293       0.00000000
Si      -2.27646464       0.70841952       2.82442856       0.00000000
Si      -3.58098413      -0.64277082       1.47066998       0.00000000
Si       3.79052499      -0.90292212      -0.67872671       0.00000000
