10
Lattice="16.28999089631971 0.0 0.0 0.0 16.28999089631971 0.0 0.0 0.0 34.40246978574605" Properties=species:S:1:pos:R:3:initial_magmoms:R:1 pbc="T T T"
Si       0.49226751      -1.94601969      -1.34482770       0.00000000
Si      -0.28219167       0.28228941       2.39458525       0.00000000
Si      -1.94290830       1.20371697      -0.83185218       0.00000000
Si       2.62412352       0.66723840      -1.35542366       0.00000000
Si       1.66172661      -0.66813435      -3.02697180       0.00000000
Si      -0.86885973       2.19313036      -2.78054677       0.00000000
Si      -3.56903800      -0.60476625      -0.53863977       0.00000000
Si       0.63983862       3.48746324      -1.31806256       0.00000000
Si       3.66827994      -1.06574067       0.09343716       0.00000000
Si       2.33142480      -3.05502660      -0.33521785       0.00000000
