10
Lattice="16.28999089631971 0.0 0.0 0.0 16.28999089631971 0.0 0.0 0.0 34.40246978574605" Properties=species:S:1:pos:R:3:initial_magmoms:R:1 pbc="T T T"
Si      -2.13293278       0.54706707       0.75654514       0.00000000
Si       1.53042921       1.36622601       1.17825085       0.00000000
Si       0.28219167      -0.28228941      -2.39458525       0.00000000
Si      -0.27987849      -2.20968963       1.06258968       0.00000000
Si      -3.05559349      -1.31409801      -0.24976207       0.00000000
Si      -1.46333070       0.63446292       3.00584867       0.00000000
Si       0.89686224       0.54799560       3.32950729       0.00000000
Si       2.06325882      -2.50670520       1.40898834       0.00000000
Si      -1.61917713      -3.31884315      -0.58931464       0.00000000
Si      -1.66071663       0.92142756      -3.22643743       0.00000000
