10
Lattice="16.28999089631971 0.0 0.0 0.0 16.28999089631971 0.0 0.0 0.0 34.69518985606464" Properties=species:S:1:pos:R:3:initial_magmoms:R:1 pbc="T T T"
Si      -0.79416193      -1.93930169       1.03054417       0.00000000
Si       0.23252346      -0.10244781      -2.32819638       0.00000000
Si       1.88571411       0.98440470       1.09638527       0.00000000
Si      -1.80297557       1.57797972      -0.18503861       0.00000000
Si      -2.06627966      -0.44150787       2.50492749       0.00000000
Si      -1.90822575       0.99970101      -2.51083196       0.00000000
Si       2.04353163       1.43524674      -2.42648791       0.00000000
Si       0.64909134       2.29905657       2.54486515       0.00000000
Si      -0.86179964       3.42687843       1.08552913       0.00000000
Si       2.56554468       2.83033863      -0.39046895       0.00000000
