10
Lattice="16.28999089631971 0.0 0.0 0.0 16.28999089631971 0.0 0.0 0.0 34.69518985606464" Properties=species:S:1:pos:R:3:initial_magmoms:R:1 pbc="T T T"
Si       1.43823433      -1.00294272      -1.63355454       0.00000000
Si       1.11997660       2.14399762       0.02407848       0.00000000
Si       0.23591830      -1.33973847       2.01017103       0.00000000
Si      -2.20846855       0.68168763      -0.76353747       0.00000000
Si       3.47987632       0.00514764      -0.96199407       0.00000000
Si      -1.68557584       2.55950339      -2.12452644       0.00000000
Si      -1.48037071      -3.04989525       1.76844951       0.00000000
Si       0.55816219      -0.53612019      -3.82878982       0.00000000
Si       2.88719725       2.16468755      -1.50861709       0.00000000
Si      -0.20772194       0.20308743       3.93336118       0.00000000
