10
Lattice="16.28999089631971 0.0 0.0 0.0 16.28999089631971 0.0 0.0 0.0 34.69518985606464" Properties=species:S:1:pos:R:3:initial_magmoms:R:1 pbc="T T T"
Si      -0.23591830       1.33973847      -2.01017103       0.00000000
Si      -1.71628901      -1.71015678      -0.24172152       0.00000000
Si       2.30920524      -0.92766663       0.20105874       0.00000000
Si      -0.44364023       1.54282590       1.92319014       0.00000000
Si       2.25743562      -1.89545553       2.42731153       0.00000000
Si       1.20231603       0.33679575      -3.64372557       0.00000000
Si      -3.75579701      -0.65050857       0.57063211       0.00000000
Si       3.80149956       0.83505798      -0.59876992       0.00000000
Si      -0.96812480      -3.89360322       0.65931306       0.00000000
Si       1.18091097       3.29571365       2.09954589       0.00000000
