10
Lattice="16.28999089631971 0.0 0.0 0.0 16.28999089631971 0.0 0.0 0.0 34.69518985606464" Properties=species:S:1:pos:R:3:initial_magmoms:R:1 pbc="T T T"
Si       0.46560078      -0.86591124       2.13677385       0.00000000
Si      -2.10022965       1.06111431       0.43209414       0.00000000
Si       1.62455120       1.75288775       0.17635575       0.00000000
Si       0.44364023      -1.54282590      -1.92319014       0.00000000
Si       2.64596678      -1.48252032       1.86785128       0.00000000
Si       3.49770572       0.63651546       1.10903236       0.00000000
Si      -3.62455011       0.15991893      -1.06413676       0.00000000
Si      -1.75698306       3.40504073       0.05370818       0.00000000
Si       0.54510738       0.83173482       3.81661180       0.00000000
Si       0.20772194      -0.20308743      -3.93336118       0.00000000
