10
Lattice="16.28999089631971 0.0 0.0 0.0 16.28999089631971 0.0 0.0 0.0 34.69518985606464" Properties=species:S:1:pos:R:3:initial_magmoms:R:1 pbc="T T T"
Si      -1.24369752      -1.41156108       1.46106179       0.00000000
Si      -1.69523514       0.97803531      -1.38957783       0.00000000
Si       0.67818528      -1.92616218      -1.38052238       0.00000000
Si       1.50262218       1.39233888       1.44075469       0.00000000
Si      -2.75824628      -1.16659206      -1.87645570       0.00000000
Si      -2.66366654       2.60367957       0.01079021       0.00000000
Si       2.40715701      -2.88671832       0.07910508       0.00000000
Si      -2.47392027      -2.92426677      -0.06546986       0.00000000
Si      -2.56520495       0.06279795       2.92892936       0.00000000
Si       3.25531215       2.25173412      -0.00322665       0.00000000
