10
Lattice="16.28999089631971 0.0 0.0 0.0 16.28999089631971 0.0 0.0 0.0 34.69518985606464" Properties=species:S:1:pos:R:3:initial_magmoms:R:1 pbc="T T T"
Si       1.34644995      -1.19157019       1.53982543       0.00000000
Si       1.87038522       0.93455893      -1.23345775       0.00000000
Si      -0.97927335      -1.72922164      -1.43330216       0.00000000
Si      -1.35925389       1.52313292       1.49419776       0.00000000
Si       2.46904272      -2.72929732       0.18136574       0.00000000
Si      -2.73196332      -2.58861688       0.01067919       0.00000000
Si       0.00247608      -2.54256505       2.89622423       0.00000000
Si       3.53996361      -1.04911640      -1.13455069       0.00000000
Si       2.72041371       2.80704556       0.09046082       0.00000000
Si       0.68054733      -3.70299949      -1.14020046       0.00000000
