10
Lattice="16.28999089631971 0.0 0.0 0.0 16.28999089631971 0.0 0.0 0.0 34.69518985606464" Properties=species:S:1:pos:R:3:initial_magmoms:R:1 pbc="T T T"
Si       1.83979260       1.66791681       0.01353113       0.00000000
Si       1.72010997      -1.74939125      -0.70934355       0.00000000
Si      -0.99170262      -0.52202934       2.29501870       0.00000000
Si      -1.62504153      -0.36207783      -1.95792005       0.00000000
Si      -3.51300366      -1.20071961      -0.62600566       0.00000000
Si      -0.35386767      -1.77193661      -3.37653776       0.00000000
Si       1.54733823       2.85513201      -2.09736009       0.00000000
Si      -2.95319781      -1.78535957       1.77323745       0.00000000
Si       3.34772532      -0.27460053       2.02772681       0.00000000
Si       0.63146556      -3.45239576      -2.01128128       0.00000000
