10
Lattice="16.28999089631971 0.0 0.0 0.0 16.28999089631971 0.0 0.0 0.0 34.69518985606464" Properties=species:S:1:pos:R:3:initial_magmoms:R:1 pbc="T T T"
Si       1.35604476      -1.35900954       1.35658268       0.00000000
Si      -1.35764118       1.35684297       1.35724189       0.00000000
Si       1.36979352       1.34794863      -1.35656186       0.00000000
Si      -1.37945349      -1.34917038      -1.35047632       0.00000000
Si      -0.17888049       2.49781086      -2.65391635       0.00000000
Si       2.54844018      -0.10759545      -2.83893897       0.00000000
Si      -2.71142815      -2.71441899      -0.00336544       0.00000000
Si      -2.71421536      -0.00039096       2.71437970       0.00000000
Si       0.00027693       2.71454931       2.71476134       0.00000000
Si       2.71516833      -0.00003258       2.71434500       0.00000000
