10
Lattice="16.28999089631971 0.0 0.0 0.0 16.28999089631971 0.0 0.0 0.0 34.69518985606464" Properties=species:S:1:pos:R:3:initial_magmoms:R:1 pbc="T T T"
Si      -0.80347167      -1.77960105       1.28219615       0.00000000
Si       0.66016854       1.94421150       1.16641824       0.00000000
Si       1.44285417      -1.19767338      -1.49185930       0.00000000
Si      -1.27733148       1.48059810      -1.50931099       0.00000000
Si      -1.15979913      -0.98344359       3.43291748       0.00000000
Si      -2.74194909      -2.62796796       0.08934016       0.00000000
Si       2.68128513       2.69061930      -0.10252434       0.00000000
Si       0.07592769      -2.56603338      -2.86388135       0.00000000
Si      -3.02104566       2.38422069      -0.22721893       0.00000000
Si      -2.62630638       0.14265153      -2.87675327       0.00000000
