10
Lattice="16.28999089631971 0.0 0.0 0.0 16.28999089631971 0.0 0.0 0.0 34.69518985606464" Properties=species:S:1:pos:R:3:initial_magmoms:R:1 pbc="T T T"
Si      -2.22860232      -0.03240081       0.75944344       0.00000000
Si       0.38643138      -1.54927674      -1.73118686       0.00000000
Si       0.66256317       2.03032044      -1.08141498       0.00000000
Si       1.35467640      -0.54675756       1.98564152       0.00000000
Si       2.74898637      -0.90453483      -1.83235809       0.00000000
Si       2.94632343       1.44998919      -1.24587027       0.00000000
Si      -2.05148115      -1.89232785       2.17198949       0.00000000
Si      -0.18764451       3.59420931       0.48295731       0.00000000
Si      -1.35031068      -0.94615578      -3.38663407       0.00000000
Si      -0.30836970      -1.12858749       3.59699112       0.00000000
