10
Lattice="16.28999089631971 0.0 0.0 0.0 16.28999089631971 0.0 0.0 0.0 34.69518985606464" Properties=species:S:1:pos:R:3:initial_magmoms:R:1 pbc="T T T"
Si       1.35029439      -1.34890974       1.35522957       0.00000000
Si      -1.35687555      -1.35498591      -1.35533365       0.00000000
Si      -1.35104373       1.35897696       1.36154410       0.00000000
Si       1.35668007       1.36023129      -1.35474384       0.00000000
Si       0.00014661      -2.71205694      -2.71149999       0.00000000
Si      -2.71479366      -2.70951570       0.00131842       0.00000000
Si       2.71029762       2.71440270       0.00381647       0.00000000
Si      -2.71474479       0.00252495      -2.71108365       0.00000000
Si       2.71513575       0.00247608      -2.71143060       0.00000000
Si       2.71340901      -2.71534752       0.00371239       0.00000000
