10
Lattice="16.28999089631971 0.0 0.0 0.0 16.28999089631971 0.0 0.0 0.0 34.69518985606464" Properties=species:S:1:pos:R:3:initial_magmoms:R:1 pbc="T T T"
Si       1.42060203       1.74935052      -0.93066429       0.00000000
Si       0.26893161      -0.90249858       2.26015002       0.00000000
Si       0.07602543      -0.95131971      -2.31156832       0.00000000
Si      -2.39995683       0.72068589       0.18183759       0.00000000
Si      -2.05833924       0.57044322      -2.27059327       0.00000000
Si       2.55269187      -1.48282983       2.09569472       0.00000000
Si      -0.58127607       0.66139029       3.82452231       0.00000000
Si       3.37989807       0.81205650      -1.88623975       0.00000000
Si       3.95068338      -0.72283617      -0.01297601       0.00000000
Si       2.37555441       3.27815073       0.46987722       0.00000000
