10
Lattice="16.28999089631971 0.0 0.0 0.0 16.28999089631971 0.0 0.0 0.0 34.69518985606464" Properties=species:S:1:pos:R:3:initial_magmoms:R:1 pbc="T T T"
Si       2.09984616      -0.79180803      -0.75854136       0.00000000
Si      -0.16177599       1.96045263       1.35984403       0.00000000
Si      -1.00392012       0.04364091      -2.22174242       0.00000000
Si      -2.20450941      -0.95182470       1.47867512       0.00000000
Si      -0.51202728      -2.67994935       1.32015271       0.00000000
Si      -1.22790762       0.63574983       2.95204678       0.00000000
Si      -1.89074772       2.92100877      -0.09978342       0.00000000
Si      -3.05421210       1.12617657      -1.53033629       0.00000000
Si       3.21375636      -1.03042395       1.36629734       0.00000000
Si       1.49941305      -1.96965648       2.76702416       0.00000000
