10
Lattice="16.28999089631971 0.0 0.0 0.0 16.28999089631971 0.0 0.0 0.0 34.69518985606464" Properties=species:S:1:pos:R:3:initial_magmoms:R:1 pbc="T T T"
Si      -1.33700175      -1.34964279       1.37565811       0.00000000
Si       1.10814354      -1.57024197      -1.39164219       0.00000000
Si       1.37901366       1.36409202       1.37600506       0.00000000
Si      -1.35542574       1.31804019      -1.50953998       0.00000000
Si       2.05708491       0.20365758      -2.66041962       0.00000000
Si       0.39726423       2.17743543      -2.95352132       0.00000000
Si      -2.69058672       2.71586880      -0.01729903       0.00000000
Si      -2.70648576      -2.71865439       0.00612023       0.00000000
Si      -2.69734707      -0.00040725       2.73241427       0.00000000
Si       2.72298753       2.71508688       0.01960626       0.00000000
