10
Lattice="16.28999089631971 0.0 0.0 0.0 16.28999089631971 0.0 0.0 0.0 34.69518985606464" Properties=species:S:1:pos:R:3:initial_magmoms:R:1 pbc="T T T"
Si       1.87315452      -1.11637229       0.93267661       0.00000000
Si       0.34091712       1.19151087      -2.04139672       0.00000000
Si      -1.62455120      -1.75288775      -0.17635575       0.00000000
Si      -0.39394107       1.77711357       1.57717482       0.00000000
Si      -1.66622428       2.44604613      -1.68865053       0.00000000
Si      -1.15895042      -2.61879899       1.96041810       0.00000000
Si       3.45251889      -1.12894817      -0.80770447       0.00000000
Si      -3.38153426       1.65215298      -0.12264756       0.00000000
Si       0.40306347       0.92531924       3.63550281       0.00000000
Si       2.52283230       0.22989425       2.80670365       0.00000000
