10
Lattice="16.28999089631971 0.0 0.0 0.0 16.28999089631971 0.0 0.0 0.0 34.69518985606464" Properties=species:S:1:pos:R:3:initial_magmoms:R:1 pbc="T T T"
Si      -1.17263565       1.48481069       1.41233788       0.00000000
Si      -1.69992666      -1.08667299      -1.25771174       0.00000000
Si       1.54463409      -1.23329702       1.38384271       0.00000000
Si       0.68339808       1.78760921      -1.48082765       0.00000000
Si      -3.36950505       0.89700233      -1.35661880       0.00000000
Si      -2.51947656       2.76948896      -0.03270023       0.00000000
Si      -2.52451017       0.13465314       2.77254274       0.00000000
Si       2.66957262       2.68227230      -0.12126670       0.00000000
Si       0.18858933      -2.57828087       2.76751194       0.00000000
Si       2.71557558      -2.69152895      -0.14414125       0.00000000
