10
Lattice="16.28999089631971 0.0 0.0 0.0 16.28999089631971 0.0 0.0 0.0 34.69518985606464" Properties=species:S:1:pos:R:3:initial_magmoms:R:1 pbc="T T T"
Si       1.70294031       1.61995905      -0.26170596       0.00000000
Si       0.79700454      -0.85179433       2.05832798       0.00000000
Si      -2.13981272       1.02806190       0.11602078       0.00000000
Si       0.39394107      -1.77711357      -1.57717482       0.00000000
Si      -2.98759319      -0.12496059      -1.69982239       0.00000000
Si      -0.68550275      -2.69826650       2.06308123       0.00000000
Si       2.91677337      -1.54721931       1.22952883       0.00000000
Si      -1.27228321       0.66893256      -3.26582535       0.00000000
Si      -1.72894453       3.17769030      -0.85776966       0.00000000
Si       0.40314492       0.95513157       3.57142075       0.00000000
