10
Lattice="16.28999089631971 0.0 0.0 0.0 16.28999089631971 0.0 0.0 0.0 34.69518985606464" Properties=species:S:1:pos:R:3:initial_magmoms:R:1 pbc="T T T"
Si      -1.35562122      -1.35467640      -1.35713780       0.00000000
Si       1.35972630       1.35995436      -1.35765823       0.00000000
Si       1.36692648      -1.35964485       1.35169066       0.00000000
Si      -1.36311462       1.36643778       1.35151718       0.00000000
Si      -0.00255753       2.69478954       2.71854312       0.00000000
Si      -0.00110772      -2.70062136       2.71861251       0.00000000
Si       2.71448415      -2.71194291      -0.00291440       0.00000000
Si       0.00239463      -2.71239903      -2.71542055       0.00000000
Si      -2.71476108      -2.71322982       0.00000000       0.00000000
Si      -2.71326240       0.00329058      -2.71521238       0.00000000
