10
Lattice="16.28999089631971 0.0 0.0 0.0 16.28999089631971 0.0 0.0 0.0 34.69518985606464" Properties=species:S:1:pos:R:3:initial_magmoms:R:1 pbc="T T T"
Si       1.03899249       1.80494829      -1.08453755       0.00000000
Si      -0.80361828      -1.78588899      -1.31873021       0.00000000
Si      -1.48393755       0.48953079       1.78465217       0.00000000
Si       0.63260586      -0.45087462       2.58267668       0.00000000
Si       2.86488972      -0.20694816       1.51316216       0.00000000
Si       0.56490462       1.17004554      -3.34489573       0.00000000
Si       0.11139102       3.60404847       0.26246926       0.00000000
Si      -1.09607265      -0.59867379      -3.42962143       0.00000000
Si       1.86243570      -2.53061892      -2.04556015       0.00000000
Si       2.72577312      -2.64860739       0.26243456       0.00000000
