10
Lattice="16.28999089631971 0.0 0.0 0.0 16.28999089631971 0.0 0.0 0.0 34.69518985606464" Properties=species:S:1:pos:R:3:initial_magmoms:R:1 pbc="T T T"
Si      -1.23571053       1.70614944       0.96789225       0.00000000
Si       1.08537012      -1.27540926       1.72060482       0.00000000
Si       1.75720230       1.51089750      -0.73432410       0.00000000
Si      -1.98068481      -1.28340765      -0.79243858       0.00000000
Si       1.23875676      -0.79871499      -3.37206208       0.00000000
Si      -3.19824828       0.76180185       1.88648261       0.00000000
Si      -1.18278432      -3.51192852      -0.84781213       0.00000000
Si       0.53341605      -2.92219794      -2.41121296       0.00000000
Si       3.07305963      -0.08135226       2.31843797       0.00000000
Si      -0.73792071      -1.76480973       3.35637985       0.00000000
