10
Lattice="16.28999089631971 0.0 0.0 0.0 16.28999089631971 0.0 0.0 0.0 34.69518985606464" Properties=species:S:1:pos:R:3:initial_magmoms:R:1 pbc="T T T"
Si      -1.36055709      -1.32835176      -1.36702594       0.00000000
Si      -1.46500857       1.20526452       1.40720299       0.00000000
Si       1.36687761       1.38298842      -1.35647860       0.00000000
Si       0.84204639      -1.74666267       1.36737289       0.00000000
Si      -2.70343953      -2.68302816       0.01786803       0.00000000
Si       2.69887833      -2.69260668       0.01752108       0.00000000
Si      -0.18225252       2.22223293       3.10147414       0.00000000
Si       0.00255753      -2.69478954      -2.71854312       0.00000000
Si      -0.81893088      -3.51538200       1.28264719       0.00000000
Si      -2.70127296       2.72329704       0.00811868       0.00000000
