10
Lattice="16.28999089631971 0.0 0.0 0.0 16.28999089631971 0.0 0.0 0.0 34.69518985606464" Properties=species:S:1:pos:R:3:initial_magmoms:R:1 pbc="T T T"
Si      -2.11403475       1.00504413      -0.22989046       0.00000000
Si       1.18555362       0.56671281       1.97429619       0.00000000
Si       1.38714237       0.95990454      -1.77184964       0.00000000
Si      -0.75064320      -2.34655821       0.04951006       0.00000000
Si      -2.94544377       0.16226469      -2.36492955       0.00000000
Si       3.30706548       1.49320656       1.26873441       0.00000000
Si      -3.53001042       0.20580786       1.52377889       0.00000000
Si       1.53834615      -1.48279725       3.20576794       0.00000000
Si       0.44525457       2.64091851       2.77617186       0.00000000
Si      -1.83901068       3.41055585      -0.30764242       0.00000000
