10
Lattice="16.28999089631971 0.0 0.0 0.0 16.28999089631971 0.0 0.0 0.0 34.69518985606464" Properties=species:S:1:pos:R:3:initial_magmoms:R:1 pbc="T T T"
Si       1.51089098      -1.12782186       1.45933601       0.00000000
Si      -0.94117593      -1.84889871      -1.27056775       0.00000000
Si      -1.19786606       1.57387464       1.41921794       0.00000000
Si       1.73486219       1.13158485      -1.31747567       0.00000000
Si      -0.09117187       1.88185338      -2.67308688       0.00000000
Si       2.74751375      -2.44247373       0.01085613       0.00000000
Si       0.86179964      -3.42687843      -1.08552913       0.00000000
Si       0.17891633      -2.49307047       2.80644690       0.00000000
Si       3.42734432      -0.59653980      -1.47599808       0.00000000
Si      -2.53732781       0.21991500       2.80908374       0.00000000
