10
Lattice="16.28999089631971 0.0 0.0 0.0 16.28999089631971 0.0 0.0 0.0 34.69518985606464" Properties=species:S:1:pos:R:3:initial_magmoms:R:1 pbc="T T T"
Si       0.74029905      -2.07420570      -0.80187568       0.00000000
Si       1.74094488       0.76338198       1.42153211       0.00000000
Si      -1.92841020      -0.25311402       1.36470136       0.00000000
Si      -0.23170896       1.38008880      -1.97134709       0.00000000
Si       2.86181091      -1.14771195      -1.50743745       0.00000000
Si      -0.55234503       3.51047871      -1.06788385       0.00000000
Si       1.15994574       0.00832419       3.57083094       0.00000000
Si      -1.17503028      -0.37436049       3.59952387       0.00000000
Si       1.42855155       3.11663538       1.70995339       0.00000000
Si       3.78045288      -0.29626623       0.60917848       0.00000000
