10
Lattice="16.28999089631971 0.0 0.0 0.0 16.28999089631971 0.0 0.0 0.0 34.69518985606464" Properties=species:S:1:pos:R:3:initial_magmoms:R:1 pbc="T T T"
Si      -1.35529654       1.35684297      -1.35800519       0.00000000
Si      -1.35736537      -1.35731538       1.35692963       0.00000000
Si       1.35816038       1.35788553       1.35710311       0.00000000
Si       1.36094760      -1.35614250      -1.36064202       0.00000000
Si       2.69292225       0.00910611      -2.70775291       0.00000000
Si       2.71328475      -2.71521720       0.00048573       0.00000000
Si      -0.00052038      -2.71420722       2.71469195       0.00000000
Si      -2.71499026      -0.00081450       2.71392866       0.00000000
Si      -2.71485994       2.71412577      -0.00013878       0.00000000
Si       2.71473456       2.71511946      -0.00003470       0.00000000
