10
Lattice="16.28999089631971 0.0 0.0 0.0 16.28999089631971 0.0 0.0 0.0 34.69518985606464" Properties=species:S:1:pos:R:3:initial_magmoms:R:1 pbc="T T T"
Si       1.62348488       1.30242297       1.02888643       0.00000000
Si      -0.52289271      -1.87781576       1.36098897       0.00000000
Si       1.49882728      -0.82250523      -1.67144171       0.00000000
Si      -1.80017532       1.51093497      -0.73602417       0.00000000
Si       0.12349449       0.42222377      -3.27987691       0.00000000
Si       0.20672010       2.25146208       2.59773440       0.00000000
Si       2.80555244      -0.41550577       2.14860492       0.00000000
Si      -2.26593900       0.59040499      -2.78352725       0.00000000
Si      -2.47032963      -1.78763432      -1.99990125       0.00000000
Si       1.68557584      -2.55950339       2.12452644       0.00000000
