10
Lattice="16.28999089631971 0.0 0.0 0.0 16.28999089631971 0.0 0.0 0.0 34.69518985606464" Properties=species:S:1:pos:R:3:initial_magmoms:R:1 pbc="T T T"
Si      -0.46576368      -0.92052998      -2.04750308       0.00000000
Si      -2.24647245      -0.09371637       0.73029946       0.00000000
Si      -0.06444324       2.40792264      -0.19189920       0.00000000
Si       1.80017532      -1.51093497       0.73602417       0.00000000
Si       1.92366981      -1.08871120      -2.54385274       0.00000000
Si      -1.90576710       0.90911232       2.77252887       0.00000000
Si      -0.67015431      -3.29856929      -1.26387708       0.00000000
Si      -1.20042639       3.03259527       1.81167974       0.00000000
Si      -1.15339716       1.49460750      -3.22998520       0.00000000
Si       2.16103140       3.13461954      -0.00170007       0.00000000
