10
Lattice="16.28999089631971 0.0 0.0 0.0 16.28999089631971 0.0 0.0 0.0 34.69518985606464" Properties=species:S:1:pos:R:3:initial_magmoms:R:1 pbc="T T T"
Si      -1.35106002       1.35650088       1.36241148       0.00000000
Si       1.35527583      -1.35223290       1.36352172       0.00000000
Si      -1.35581670      -1.35716877      -1.35859500       0.00000000
Si       1.35883571       1.35961227      -1.35779701       0.00000000
Si      -2.71552671      -2.71334385      -0.00315726       0.00000000
Si       0.00180819      -2.71366965      -2.71559403       0.00000000
Si      -2.71381626       0.00166158      -2.71580220       0.00000000
Si       2.71548828       2.71469592       0.00183885       0.00000000
Si      -2.71526607       2.71588509       0.00131842       0.00000000
Si       2.71816147      -2.71393029       0.00128372       0.00000000
