10
Lattice="16.28999089631971 0.0 0.0 0.0 16.28999089631971 0.0 0.0 0.0 34.69518985606464" Properties=species:S:1:pos:R:3:initial_magmoms:R:1 pbc="T T T"
Si       1.93847742       0.84836691       1.19285599       0.00000000
Si      -1.07552770      -1.85243364       1.16225481       0.00000000
Si      -1.24410640       1.42853526      -1.57280323       0.00000000
Si       1.45863918      -1.27777131      -1.56999291       0.00000000
Si       1.00897002      -3.45791088       1.15493413       0.00000000
Si       2.74194909       2.62796796      -0.08934016       0.00000000
Si      -2.11522555       3.20996079      -0.21195303       0.00000000
Si       2.89693215      -2.61926910      -0.17698026       0.00000000
Si      -2.61390389       0.06770124      -2.95384603       0.00000000
Si      -2.73700412      -2.84363127      -0.28373742       0.00000000
