10
Lattice="16.28999089631971 0.0 0.0 0.0 16.28999089631971 0.0 0.0 0.0 34.69518985606464" Properties=species:S:1:pos:R:3:initial_magmoms:R:1 pbc="T T T"
Si      -1.39103568      -1.47331647      -1.14605215       0.00000000
Si       0.45460503      -0.42665139       2.31219283       0.00000000
Si       1.43703864       1.59827706      -1.13737835       0.00000000
Si      -1.63553229       0.51017022       1.94452770       0.00000000
Si       0.08755875      -2.68250688       2.03667817       0.00000000
Si       0.13673826      -2.41083855      -2.62444971       0.00000000
Si      -2.60784981       0.29188422      -2.59044841       0.00000000
Si      -1.66698828      -3.26897946       0.46096055       0.00000000
Si      -1.43690832       2.83281471       2.05614219       0.00000000
Si       2.82642807       0.29624994      -2.61660860       0.00000000
