10
Lattice="16.28999089631971 0.0 0.0 0.0 16.28999089631971 0.0 0.0 0.0 34.69518985606464" Properties=species:S:1:pos:R:3:initial_magmoms:R:1 pbc="T T T"
Si       0.92844855       0.82455093      -1.91656336       0.00000000
Si       1.90677708      -0.49972833       1.36320947       0.00000000
Si      -1.15224057       1.80397089       1.09203171       0.00000000
Si      -1.33333650      -2.04467193      -0.35902603       0.00000000
Si      -0.82609848       0.23807835      -3.49228098       0.00000000
Si       1.29549483       3.08040642      -1.64104870       0.00000000
Si       1.84197546      -2.84631912       1.61853151       0.00000000
Si       1.48931325       0.18681372       3.55650181       0.00000000
Si      -0.38349918      -3.57301602       1.42833237       0.00000000
Si       2.44358098      -0.74385027      -2.91804057       0.00000000
