10
Lattice="16.28999089631971 0.0 0.0 0.0 16.28999089631971 0.0 0.0 0.0 34.69518985606464" Properties=species:S:1:pos:R:3:initial_magmoms:R:1 pbc="T T T"
Si      -1.07404857       1.35482301       1.55937618       0.00000000
Si      -1.44550944      -0.44225721      -1.79266677       0.00000000
Si      -0.12965211      -2.03450697       1.26009530       0.00000000
Si       1.99001607       1.20174588      -0.71204978       0.00000000
Si       0.21611943       0.65129049       3.37570508       0.00000000
Si      -0.26230158      -1.42501662      -3.51691458       0.00000000
Si       2.01616624      -2.94412428       1.44758822       0.00000000
Si      -1.79830197       1.60725285      -3.02413852       0.00000000
Si      -3.20271174      -1.95315471      -1.05834266       0.00000000
Si      -2.11734162      -3.22856397       0.66226215       0.00000000
