10
Lattice="16.28999089631971 0.0 0.0 0.0 16.28999089631971 0.0 0.0 0.0 34.69518985606464" Properties=species:S:1:pos:R:3:initial_magmoms:R:1 pbc="T T T"
Si       1.35436689       1.35381730       1.35713780       0.00000000
Si      -1.35712316       1.35747277      -1.35769293       0.00000000
Si       1.35778779      -1.35765550      -1.35772762       0.00000000
Si      -1.36149702      -1.36044109       1.35623573       0.00000000
Si      -0.00175932      -2.71026307       2.71597567       0.00000000
Si      -2.71196254       0.00128105       2.71531647       0.00000000
Si      -0.00140094       2.71410234      -2.71434500       0.00000000
Si       2.71368594      -0.00317800      -2.71510829       0.00000000
Si       2.71466334       0.00430248       2.71507360       0.00000000
Si       2.71510317       2.71506345       0.00010409       0.00000000
