10
Lattice="16.28999089631971 0.0 0.0 0.0 16.28999089631971 0.0 0.0 0.0 34.69518985606464" Properties=species:S:1:pos:R:3:initial_magmoms:R:1 pbc="T T T"
Si       0.58099914       0.75505779      -2.14929882       0.00000000
Si       0.30460671      -2.33495973       0.21080809       0.00000000
Si      -2.33497602      -0.38268468       0.02869294       0.00000000
Si       0.90080442       1.06372071       1.92929650       0.00000000
Si      -2.03136300      -2.73251718       0.33383730       0.00000000
Si       0.26860581       3.10831119      -1.86087755       0.00000000
Si      -1.15994574      -0.00832419      -3.57083094       0.00000000
Si       3.12293961       0.20986407       2.08903324       0.00000000
Si      -3.08835594      -0.26143821      -2.20612958       0.00000000
Si      -3.33545895       1.07738802       1.58883241       0.00000000
