10
Lattice="16.28999089631971 0.0 0.0 0.0 16.28999089631971 0.0 0.0 0.0 34.69518985606464" Properties=species:S:1:pos:R:3:initial_magmoms:R:1 pbc="T T T"
Si      -1.96382466      -1.02315861       0.64703096       0.00000000
Si      -0.69910164       2.26763316       0.12622117       0.00000000
Si       0.49994010      -1.20606273      -2.01717947       0.00000000
Si       1.94994558       2.26927845       0.50575207       0.00000000
Si       2.23427158       0.51160374       2.31673790       0.00000000
Si      -1.24668999      -1.37922543       2.83802513       0.00000000
Si       2.02810500       2.04229359      -1.95528321       0.00000000
Si       2.70159291      -0.33449886      -2.32742403       0.00000000
Si      -0.19403019       2.89615023      -2.11501996       0.00000000
Si      -2.02059531      -2.89380447      -0.71610912       0.00000000
