10
Lattice="16.28999089631971 0.0 0.0 0.0 16.28999089631971 0.0 0.0 0.0 34.69518985606464" Properties=species:S:1:pos:R:3:initial_magmoms:R:1 pbc="T T T"
Si      -1.38370518       1.29318165       1.41769135       0.00000000
Si       0.89088381       1.41986898      -1.68698312       0.00000000
Si       1.34299647      -1.39439142       1.42155293       0.00000000
Si      -1.12648608      -1.78605189      -1.17814800       0.00000000
Si       2.51040303       2.54415591      -0.12914945       0.00000000
Si       2.61620658      -2.72999223      -0.01980749       0.00000000
Si       0.65546073      -3.59792343      -1.08242738       0.00000000
Si      -0.01658322       2.65740399       2.78250374       0.00000000
Si      -2.97602010       2.46883095       0.07319648       0.00000000
Si       2.70159876      -0.06155991       2.78867949       0.00000000
