10
Lattice="16.28999089631971 0.0 0.0 0.0 16.28999089631971 0.0 0.0 0.0 34.69518985606464" Properties=species:S:1:pos:R:3:initial_magmoms:R:1 pbc="T T T"
Si      -1.35659862       1.35252129       1.36293190       0.00000000
Si       1.35604476       1.34498385      -1.38366923       0.00000000
Si       1.35933534      -1.36461330       1.36116245       0.00000000
Si      -1.36712196      -1.36422234      -1.36481239       0.00000000
Si      -0.18858933       2.57828087      -2.76751194       0.00000000
Si      -2.71309950       2.71293401       0.00503081       0.00000000
Si      -2.70945054      -2.71990872       0.00027756       0.00000000
Si       0.00154755       2.71106229       2.71906355       0.00000000
Si      -2.71293660      -0.00431685       2.71906355       0.00000000
Si       2.71852407       2.71454021       0.00343483       0.00000000
