10
Lattice="16.28999089631971 0.0 0.0 0.0 16.28999089631971 0.0 0.0 0.0 34.69518985606464" Properties=species:S:1:pos:R:3:initial_magmoms:R:1 pbc="T T T"
Si      -2.08339326      -0.79434927      -0.74934713       0.00000000
Si      -0.10249668      -1.18819260       2.02849010       0.00000000
Si       1.52130681      -0.86951133      -1.60427178       0.00000000
Si       0.12637782       2.40449264       0.15193032       0.00000000
Si      -2.26756800      -0.50378454       2.79473380       0.00000000
Si       2.04419952       1.00830443      -2.96526075       0.00000000
Si      -1.76275719      -2.92473918      -1.65281038       0.00000000
Si       0.16852005      -2.28837033      -3.03197964       0.00000000
Si       1.42182378      -0.28699722       3.52472100       0.00000000
Si      -0.30203289       2.94778043       2.43119740       0.00000000
