10
Lattice="16.28999089631971 0.0 0.0 0.0 16.28999089631971 0.0 0.0 0.0 34.69518985606464" Properties=species:S:1:pos:R:3:initial_magmoms:R:1 pbc="T T T"
Si      -0.90080442      -1.06372071      -1.92929650       0.00000000
Si      -0.50507145      -0.62851707       2.24124113       0.00000000
Si       2.22213519      -0.85385664       0.15973674       0.00000000
Si      -0.13387122       2.43296037      -0.13801754       0.00000000
Si       2.14397577      -0.62687178       2.62077202       0.00000000
Si      -3.02686119      -0.12753441       1.71054321       0.00000000
Si       0.19403019      -2.89615023       2.11501996       0.00000000
Si       3.45795228       1.01876031      -0.58926343       0.00000000
Si       0.89212185       2.94578586      -2.29394315       0.00000000
Si      -0.59619771      -3.39868044      -1.71848841       0.00000000
