10
Lattice="16.28999089631971 0.0 0.0 0.0 16.28999089631971 0.0 0.0 0.0 34.69518985606464" Properties=species:S:1:pos:R:3:initial_magmoms:R:1 pbc="T T T"
Si       1.52432046       0.90119538       1.49623090       0.00000000
Si       0.10249668       1.18819260      -2.02849010       0.00000000
Si       0.31239333      -2.35325340      -0.28842127       0.00000000
Si      -2.16507132       0.68440806       0.76624370       0.00000000
Si      -1.98089658       0.39384333      -2.77783723       0.00000000
Si      -0.26860581      -3.10831119       1.86087755       0.00000000
Si       0.49832739       0.38836989       3.65215651       0.00000000
Si      -3.56666292       0.33572061      -1.03565200       0.00000000
Si       3.62455011      -0.15991893       1.06413676       0.00000000
Si      -1.42855155      -3.11663538      -1.70995339       0.00000000
