10
Lattice="16.28999089631971 0.0 0.0 0.0 16.28999089631971 0.0 0.0 0.0 34.69518985606464" Properties=species:S:1:pos:R:3:initial_magmoms:R:1 pbc="T T T"
Si       2.15047222       0.33707268       0.83802808       0.00000000
Si      -0.76425024      -2.18712798      -0.39226404       0.00000000
Si      -1.22091155       0.32162976       2.01579166       0.00000000
Si       0.10757753       1.17713169      -2.09718662       0.00000000
Si      -1.99371096      -1.77818382      -2.34012247       0.00000000
Si       2.21097328      -1.23610149       2.61185535       0.00000000
Si      -1.73816973       0.33938586      -3.26839280       0.00000000
Si       1.24289116      -3.44166323      -0.74501023       0.00000000
Si       2.20300747       2.68095933       1.48339367       0.00000000
Si      -1.63177974      -1.82799864       2.98958210       0.00000000
