10
Lattice="16.28999089631971 0.0 0.0 0.0 16.28999089631971 0.0 0.0 0.0 34.69518985606464" Properties=species:S:1:pos:R:3:initial_magmoms:R:1 pbc="T T T"
Si      -1.35873382      -1.33428132      -1.37618547       0.00000000
Si       1.36198246       1.37634210      -1.37462419       0.00000000
Si      -1.38938943       1.30202712       1.47923025       0.00000000
Si       0.97996567      -1.82545740       1.26790173       0.00000000
Si       2.52681521      -0.74370366       2.70251393       0.00000000
Si      -2.68968981      -2.70708849      -0.00784112       0.00000000
Si       2.71367780       2.71787247       0.00239397       0.00000000
Si       0.00537081      -2.70301599      -2.73106809       0.00000000
Si      -2.70883056       0.01119123      -2.73602951       0.00000000
Si      -2.72191143       2.72893338       0.01033917       0.00000000
