10
Lattice="16.28999089631971 0.0 0.0 0.0 16.28999089631971 0.0 0.0 0.0 34.69518985606464" Properties=species:S:1:pos:R:3:initial_magmoms:R:1 pbc="T T T"
Si      -1.54684953      -1.08175374      -1.43461221       0.00000000
Si      -0.34161759       0.15024267       2.45243087       0.00000000
Si       1.18980531       1.71639585      -1.40217219       0.00000000
Si       2.13436467      -1.52176293      -0.04097504       0.00000000
Si       2.05833924      -0.57044322       2.27059327       0.00000000
Si       0.19686465      -1.98537633      -2.71670427       0.00000000
Si      -1.08188406       2.46573585       2.53521363       0.00000000
Si      -2.52681521       0.74370366      -2.70251393       0.00000000
Si       2.31080166       3.00879558       0.25875687       0.00000000
Si       3.47894127       1.17890730       1.33992898       0.00000000
