10
Lattice="16.28999089631971 0.0 0.0 0.0 16.28999089631971 0.0 0.0 0.0 34.69518985606464" Properties=species:S:1:pos:R:3:initial_magmoms:R:1 pbc="T T T"
Si       1.74371418      -0.90362259      -1.28209207       0.00000000
Si       1.54684953       1.08175374       1.43461221       0.00000000
Si      -0.97996567       1.82545740      -1.26790173       0.00000000
Si      -1.83612898      -1.80222786       0.10460606       0.00000000
Si       0.39473928      -2.24156916      -2.64953435       0.00000000
Si      -2.33869949       0.49117608      -2.64408720       0.00000000
Si       3.02104566      -2.38422069       0.22721893       0.00000000
Si       2.73665484       2.79814959       0.03244002       0.00000000
Si      -0.96500983      -3.58365339      -1.25624414       0.00000000
Si      -2.36935511       3.12748452       0.21132852       0.00000000
