10
Lattice="16.28999089631971 0.0 0.0 0.0 16.28999089631971 0.0 0.0 0.0 34.69518985606464" Properties=species:S:1:pos:R:3:initial_magmoms:R:1 pbc="T T T"
Si       1.49949450       0.74702682       1.61291089       0.00000000
Si       0.57471120      -1.68265926      -1.54997378       0.00000000
Si       0.21968694       1.76901255      -1.55351269       0.00000000
Si      -1.79543330      -1.15533567       1.05341594       0.00000000
Si       0.75183237      -3.54258630      -0.13742772       0.00000000
Si       3.40516386       1.39579236       0.36006688       0.00000000
Si      -0.92128095      -1.28223477      -3.36831500       0.00000000
Si       2.61566901       1.94395086      -1.82645990       0.00000000
Si      -3.56621399      -1.01978658      -0.49773747       0.00000000
Si      -0.67171815       1.07142588      -3.63460073       0.00000000
