10
Lattice="16.28999089631971 0.0 0.0 0.0 16.28999089631971 0.0 0.0 0.0 34.69518985606464" Properties=species:S:1:pos:R:3:initial_magmoms:R:1 pbc="T T T"
Si       1.35125550      -1.36010586      -1.36168288       0.00000000
Si      -1.35880917       1.35782037      -1.35984403       0.00000000
Si      -1.34919807      -1.38877463       1.35692963       0.00000000
Si       1.35084825       1.37404521       1.38624709       0.00000000
Si       2.71155195      -2.70962067      -0.00374708       0.00000000
Si       2.71008585       2.71375110       0.00301848       0.00000000
Si      -2.71507393      -2.71264211      -0.00350422       0.00000000
Si       2.71199178       0.00114030      -2.71871660       0.00000000
Si      -0.00311139      -2.71392315      -2.71882068       0.00000000
Si      -0.00123804       2.71611315      -2.71916763       0.00000000
