10
Lattice="16.28999089631971 0.0 0.0 0.0 16.28999089631971 0.0 0.0 0.0 34.69518985606464" Properties=species:S:1:pos:R:3:initial_magmoms:R:1 pbc="T T T"
Si       0.97633138       1.32773274      -1.65340020       0.00000000
Si       1.82603407      -0.75026853       1.35561122       0.00000000
Si      -1.01230980       2.12446035       1.09220519       0.00000000
Si      -1.09189488      -2.04996618      -1.68882401       0.00000000
Si       0.09117187      -1.88185338       2.67308688       0.00000000
Si       2.13979576       3.12256494      -0.22284733       0.00000000
Si      -0.54498847       1.27835775      -3.55195674       0.00000000
Si      -3.24658138       1.61285661      -1.22453272       0.00000000
Si       3.02662336       0.24519708      -2.34480633       0.00000000
Si      -2.53252552       1.10156238       2.67611231       0.00000000
