10
Lattice="16.28999089631971 0.0 0.0 0.0 16.28999089631971 0.0 0.0 0.0 34.69518985606464" Properties=species:S:1:pos:R:3:initial_magmoms:R:1 pbc="T T T"
Si      -1.35973770       1.34982198      -1.35973995       0.00000000
Si       1.35169533       1.34153037       1.37701816       0.00000000
Si       1.35855342      -1.36259334      -1.35772762       0.00000000
Si      -1.36198246      -1.37634210       1.37462419       0.00000000
Si       2.35463805      -0.40364991       2.67496594       0.00000000
Si      -2.71020322       2.71154412      -0.00065921       0.00000000
Si       0.00175932       2.71026307      -2.71597567       0.00000000
Si      -2.71356358      -0.00470781      -2.71680836       0.00000000
Si       2.71642266       2.71456555      -0.00090208       0.00000000
Si      -2.72071628      -2.71062342      -0.00156128       0.00000000
