10
Lattice="16.28999089631971 0.0 0.0 0.0 16.28999089631971 0.0 0.0 0.0 34.69518985606464" Properties=species:S:1:pos:R:3:initial_magmoms:R:1 pbc="T T T"
Si       0.88321122       1.91426138       1.21173018       0.00000000
Si       1.32885675      -1.36230012      -1.52527079       0.00000000
Si      -1.36716594       1.33158111      -1.54251431       0.00000000
Si      -1.55610225      -1.45052676       1.59185090       0.00000000
Si      -2.86276292       2.52854099      -0.22694136       0.00000000
Si       2.33179947      -3.10748040      -0.22732301       0.00000000
Si       2.77117335       2.75290316      -0.12018420       0.00000000
Si      -1.20128650       3.51973862       1.21905087       0.00000000
Si      -2.77421048      -2.77814547      -0.04843451       0.00000000
Si       2.69358408       0.01073506      -2.90319102       0.00000000
