10
Lattice="16.28999089631971 0.0 0.0 0.0 16.28999089631971 0.0 0.0 0.0 34.69518985606464" Properties=species:S:1:pos:R:3:initial_magmoms:R:1 pbc="T T T"
Si      -1.21810823      -1.32761871      -1.64028541       0.00000000
Si      -2.10904091       1.08115101       0.80940454       0.00000000
Si       1.55610225       1.45052676      -1.59185090       0.00000000
Si       1.61621235      -0.90761364       2.11821191       0.00000000
Si      -2.65514687      -2.92589577      -0.50290706       0.00000000
Si       3.60357606       0.48557232       1.69697738       0.00000000
Si      -2.55063023       0.09928755      -3.10917648       0.00000000
Si       0.17128120      -2.62964583      -3.11951565       0.00000000
Si      -2.88659519       2.89668847      -0.44229453       0.00000000
Si       0.22882074      -0.73045989       4.10232685       0.00000000
