10
Lattice="10.86 0.0 0.0 0.0 10.86 0.0 0.0 0.0 10.86" Properties=species:S:1:pos:R:3:initial_magmoms:R:1 pbc="T T T"
Si      -1.19814036       1.45066794       1.27079376       0.00000000
Si       1.52725266      -1.31959860       1.24909548       0.00000000
Si       1.47447306       1.16939394      -1.48571316       0.00000000
Si      -2.57669790       0.02574906       2.62188636       0.00000000
Si      -2.57669790      -2.68925094      -0.09311364       0.00000000
Si       0.13830210      -2.68925094       2.62188636       0.00000000
Si      -2.57669790       2.74074906      -0.09311364       0.00000000
Si       0.16186830       2.64126060      -2.72026710       0.00000000
Si       0.13830210       2.74074906       2.62188636       0.00000000
Si      -2.57669790       0.02574906      -2.80811364       0.00000000
