10
Lattice="10.86 0.0 0.0 0.0 10.86 0.0 0.0 0.0 10.86" Properties=species:S:1:pos:R:3:initial_magmoms:R:1 pbc="T T T"
Si       1.44714930       1.26785070      -1.31509170       0.00000000
Si      -1.26785070      -1.44714930      -1.31509170       0.00000000
Si      -1.43346570       1.43346570       1.41119184       0.00000000
Si       1.44714930      -1.44714930       1.39990830       0.00000000
Si      -2.55376158       2.55376158      -0.09207108       0.00000000
Si       0.08964930       2.62535070      -2.67259170       0.00000000
Si      -2.62535070      -0.08964930      -2.67259170       0.00000000
Si       2.80464930       2.62535070       0.04240830       0.00000000
Si      -2.62535070      -2.80464930       0.04240830       0.00000000
Si       2.80464930      -0.08964930      -2.67259170       0.00000000
