10
Lattice="10.86 0.0 0.0 0.0 10.86 0.0 0.0 0.0 10.86" Properties=species:S:1:pos:R:3:initial_magmoms:R:1 pbc="T T T"
Si       1.12029588      -1.12029588       1.50326292       0.00000000
Si       1.28591088       1.42908912      -1.22302062       0.00000000
Si      -1.42908912      -1.28591088      -1.22302062       0.00000000
Si      -1.42908912       1.42908912       1.49197938       0.00000000
Si       2.55376158      -2.55376158       0.09207108       0.00000000
Si       2.64341088       0.07158912      -2.58052062       0.00000000
Si      -0.07158912      -2.64341088      -2.58052062       0.00000000
Si      -0.07158912       2.78658912      -2.58052062       0.00000000
Si      -2.78658912       0.07158912      -2.58052062       0.00000000
Si       2.64341088       2.78658912       0.13447938       0.00000000
