10
Lattice="16.28999089631971 0.0 0.0 0.0 16.28999089631971 0.0 0.0 0.0 34.53561885213415" Properties=species:S:1:pos:R:3:initial_magmoms:R:1 pbc="T T T"
Si      -2.19230641      -0.40014756      -0.77083544       0.00000000
Si       1.52542818      -1.58967594      -0.89623435       0.00000000
Si       0.26922483       2.38860989       0.02514194       0.00000000
Si      -0.06253731      -0.68080797       2.30625538       0.00000000
Si      -2.75471135      -2.28270141       0.53554414       0.00000000
Si       2.86115931      -0.22750614      -2.22944812       0.00000000
Si      -3.42455615       1.35897926       0.19730210       0.00000000
Si       1.49408622       2.74084856       2.02337397       0.00000000
Si      -1.95055483       3.19372685       0.05315035       0.00000000
Si       2.88342774      -2.25614871       0.96644530       0.00000000
