10
Lattice="16.28999089631971 0.0 0.0 0.0 16.28999089631971 0.0 0.0 0.0 34.53561885213415" Properties=species:S:1:pos:R:3:initial_magmoms:R:1 pbc="T T T"
Si       1.35526284      -1.35420399       1.35614544       0.00000000
Si      -1.36032903       1.35770634       1.35528205       0.00000000
Si       1.34659656       1.35583299      -1.37212853       0.00000000
Si      -1.35902583      -1.34855136      -1.38177088       0.00000000
Si       2.66520690      -0.14600727      -2.64358223       0.00000000
Si       2.71280628      -2.71030251      -0.00355717       0.00000000
Si      -2.71549413      -2.70914755      -0.00207214       0.00000000
Si      -0.00162900      -2.71212047       2.71273984       0.00000000
Si       2.71306692       0.00262269       2.71315427       0.00000000
Si      -2.71678104       0.00268785       2.71273984       0.00000000
