10
Lattice="16.28999089631971 0.0 0.0 0.0 16.28999089631971 0.0 0.0 0.0 34.53561885213415" Properties=species:S:1:pos:R:3:initial_magmoms:R:1 pbc="T T T"
Si      -1.36241415      -1.34904278      -1.36408864       0.00000000
Si      -1.29440340       1.35961064       1.42169408       0.00000000
Si       1.35244467       1.36179350      -1.36591902       0.00000000
Si       1.34342001      -1.31155188       1.50402704       0.00000000
Si       0.58606533       2.28944384       2.64245982       0.00000000
Si      -2.19919887      -0.55362217       2.82808887       0.00000000
Si      -0.38441142      -2.34358596       2.85454317       0.00000000
Si       2.33523666       0.48573359       2.93259371       0.00000000
Si       2.70899442      -2.71294542       0.02852644       0.00000000
Si       2.70804960       0.00616576      -2.72247889       0.00000000
