10
Lattice="16.28999089631971 0.0 0.0 0.0 16.28999089631971 0.0 0.0 0.0 34.53561885213415" Properties=species:S:1:pos:R:3:initial_magmoms:R:1 pbc="T T T"
Si      -0.68611851       1.87787210       1.21565446       0.00000000
Si      -1.05977853      -1.85827916       0.97487199       0.00000000
Si       2.34919719      -0.16789940       0.04434376       0.00000000
Si      -0.75626325       0.10783980      -2.26640125       0.00000000
Si       0.75033369      -1.56486368      -2.89916322       0.00000000
Si       2.83950990       2.06624966       0.40710610       0.00000000
Si       1.35773892       2.41163024       2.23000069       0.00000000
Si      -1.30802184       3.26662718      -0.54859861       0.00000000
Si      -3.06009279      -0.88170995       1.60894631       0.00000000
Si       2.80956888      -0.71672483      -2.14887648       0.00000000
