10
Lattice="16.28999089631971 0.0 0.0 0.0 16.28999089631971 0.0 0.0 0.0 34.53561885213415" Properties=species:S:1:pos:R:3:initial_magmoms:R:1 pbc="T T T"
Si      -0.62190333       1.38875508      -1.76425308       0.00000000
Si       0.68611851      -1.87787210      -1.21565446       0.00000000
Si       2.04385743       0.53375814       1.01434623       0.00000000
Si      -1.86253344      -0.65293578       1.29121844       0.00000000
Si       3.52562841       0.18837756      -0.80854836       0.00000000
Si      -2.37397428      -2.75958206       0.39329185       0.00000000
Si      -1.17384111       3.41365095      -0.73288078       0.00000000
Si      -0.37366002      -3.73615127      -0.24078247       0.00000000
Si       2.13205149      -0.87765959       2.98011475       0.00000000
Si      -0.82280790       2.17398195       3.03309242       0.00000000
