10
Lattice="16.28999089631971 0.0 0.0 0.0 16.28999089631971 0.0 0.0 0.0 34.53561885213415" Properties=species:S:1:pos:R:3:initial_magmoms:R:1 pbc="T T T"
Si       1.27118901      -1.42511436      -1.43240013       0.00000000
Si      -1.08858432      -1.87931540       1.01369005       0.00000000
Si      -1.46670780       1.28479230      -1.43126045       0.00000000
Si       1.04818380      -0.35732115       2.32379948       0.00000000
Si       2.56290782       2.54803293       0.04641590       0.00000000
Si       2.60400749      -2.79551298       0.08602827       0.00000000
Si       2.61650192      -0.08513154      -2.81078652       0.00000000
Si      -0.09658848       2.63666682      -2.81154630       0.00000000
Si      -3.03769911       2.52464049      -0.05978119       0.00000000
Si       1.69334762       2.80730457       2.20744892       0.00000000
