10
Lattice="16.28999089631971 0.0 0.0 0.0 16.28999089631971 0.0 0.0 0.0 34.53561885213415" Properties=species:S:1:pos:R:3:initial_magmoms:R:1 pbc="T T T"
Si      -1.74866634       1.20754349      -0.87730882       0.00000000
Si      -0.55806282      -2.27269188      -0.48864474       0.00000000
Si       1.95321987       0.35575242      -1.40629119       0.00000000
Si      -0.35144046       0.92966867       2.23735678       0.00000000
Si       0.01381392      -3.36988854       1.55541607       0.00000000
Si      -2.04136506       0.58047623      -3.09518750       0.00000000
Si      -2.14408980      -0.53465083       3.08620823       0.00000000
Si      -1.00163952       3.40739396      -1.35331352       0.00000000
Si       2.64847707      -1.83330171      -2.03791347       0.00000000
Si       1.77036462       0.61848080       3.34805744       0.00000000
