10
Lattice="16.28999089631971 0.0 0.0 0.0 16.28999089631971 0.0 0.0 0.0 34.53561885213415" Properties=species:S:1:pos:R:3:initial_magmoms:R:1 pbc="T T T"
Si       1.79773182       0.61168461       1.35564955       0.00000000
Si       0.57876741      -0.03194958      -2.32863447       0.00000000
Si      -0.84641211      -1.84228564       1.32032304       0.00000000
Si      -1.91814750       1.51535119       0.12685013       0.00000000
Si       1.42084638      -2.23953358      -1.89780239       0.00000000
Si       0.52255062       2.11415530       2.72304670       0.00000000
Si      -2.19007647      -0.61798609       2.77330641       0.00000000
Si      -0.84501117       3.41942413       1.19038961       0.00000000
Si      -2.26887120      -3.06219487      -0.10930529       0.00000000
Si      -3.32562956       0.59622866      -1.79778718       0.00000000
