10
Lattice="16.28999089631971 0.0 0.0 0.0 16.28999089631971 0.0 0.0 0.0 34.53561885213415" Properties=species:S:1:pos:R:3:initial_magmoms:R:1 pbc="T T T"
Si      -0.34297455      -2.05031316       1.38543166       0.00000000
Si      -0.54088176       1.97161128       1.45087669       0.00000000
Si      -1.04818380       0.35732115      -2.32379948       0.00000000
Si      -2.13676812      -1.52199425      -1.31010943       0.00000000
Si      -2.58153399      -1.27552981       0.95722428       0.00000000
Si       0.64516382       3.16462572      -0.11635056       0.00000000
Si       1.42903862       1.08284517       2.83834596       0.00000000
Si       3.11559119      -0.95704239       1.32371647       0.00000000
Si      -0.31834570      -3.38234876      -1.03351351       0.00000000
Si       1.55582369      -2.43819183      -2.23777121       0.00000000
