10
Lattice="16.28999089631971 0.0 0.0 0.0 16.28999089631971 0.0 0.0 0.0 34.53561885213415" Properties=species:S:1:pos:R:3:initial_magmoms:R:1 pbc="T T T"
Si       1.31999499       1.54474812      -1.13466839       0.00000000
Si       1.51430211      -1.38693060       1.16568139       0.00000000
Si      -1.51218441       1.34359920       1.38791823       0.00000000
Si      -0.54051849       3.04552953      -1.15552792       0.00000000
Si      -0.66244914      -1.80442701      -2.79141202       0.00000000
Si       2.75801103      -2.14306353      -1.16478347       0.00000000
Si      -0.07420095      -2.57463450       2.72850333       0.00000000
Si       1.61415981      -1.30484529      -3.17168394       0.00000000
Si       2.62837521       0.05789466       2.76718324       0.00000000
Si      -0.16202034       2.78914122       2.74768442       0.00000000
