10
Lattice="16.28999089631971 0.0 0.0 0.0 16.28999089631971 0.0 0.0 0.0 34.53561885213415" Properties=species:S:1:pos:R:3:initial_magmoms:R:1 pbc="T T T"
Si      -1.34651511      -1.34996859       1.38766957       0.00000000
Si       1.36575360       1.36528119       1.38929274       0.00000000
Si      -1.44754569       1.25224488      -1.50111914       0.00000000
Si       1.34284986      -1.47900168      -1.48162032       0.00000000
Si       0.32255829       2.39388066      -2.84848704       0.00000000
Si      -2.69840592       2.71013472       0.01267803       0.00000000
Si       2.71345788      -2.71241532       0.02199920       0.00000000
Si      -2.71409319      -2.72173320       0.00094282       0.00000000
Si       2.73031803       2.71782360       0.02078700       0.00000000
Si      -2.70777267       0.00689067       2.74978967       0.00000000
