10
Lattice="16.28999089631971 0.0 0.0 0.0 16.28999089631971 0.0 0.0 0.0 34.53561885213415" Properties=species:S:1:pos:R:3:initial_magmoms:R:1 pbc="T T T"
Si       1.35760860       1.35725022      -1.35801036       0.00000000
Si      -1.35754344      -1.35742941      -1.35797583       0.00000000
Si       1.35871632      -1.35747828       1.35797583       0.00000000
Si      -1.35778779       1.35889551       1.35994436       0.00000000
Si      -2.71588509       2.71383255      -0.00100153       0.00000000
Si       0.00045612       2.71450044      -2.71560630       0.00000000
Si       2.71443528       0.00001629      -2.71574444       0.00000000
Si       2.71560816       2.71472850      -0.00117421       0.00000000
Si      -2.71547784      -2.71560816       0.00024175       0.00000000
Si      -0.00013032      -2.71513575      -2.71595166       0.00000000
