10
Lattice="16.28999089631971 0.0 0.0 0.0 16.28999089631971 0.0 0.0 0.0 34.53561885213415" Properties=species:S:1:pos:R:3:initial_magmoms:R:1 pbc="T T T"
Si      -1.61668476      -0.87612507      -1.47249600       0.00000000
Si      -0.69164082       1.73294649       1.54857801       0.00000000
Si       1.26286596       1.63126431      -1.36125671       0.00000000
Si      -1.42350165      -2.06231400       1.57344367       0.00000000
Si      -0.15553692      -2.23489026      -2.88434743       0.00000000
Si      -0.77294421       0.47444625       3.60645309       0.00000000
Si      -3.29431041      -1.87805781      -0.03090940       0.00000000
Si       2.71461447       2.69840592       0.31285835       0.00000000
Si       2.58486462       0.45918252      -2.89926682       0.00000000
Si       3.15431415      -1.47290922       1.85131742       0.00000000
