10
Lattice="16.28999089631971 0.0 0.0 0.0 16.28999089631971 0.0 0.0 0.0 34.53561885213415" Properties=species:S:1:pos:R:3:initial_magmoms:R:1 pbc="T T T"
Si      -1.83679524      -1.05565716      -1.05216275       0.00000000
Si       1.13814972      -1.34902377       1.61944514       0.00000000
Si      -1.54870659       1.33037172       1.48282216       0.00000000
Si       1.62204417       0.91095309      -1.88820148       0.00000000
Si      -2.10258288       2.18403288      -0.69485704       0.00000000
Si      -0.11292228       2.48878620      -2.40544173       0.00000000
Si       2.23518348       0.24679350       2.96517951       0.00000000
Si      -1.12764267      -1.63861110      -3.28254334       0.00000000
Si      -0.52841502      -2.54251062       2.84968888       0.00000000
Si      -3.69730872       0.44512425      -1.07302228       0.00000000
