10
Lattice="16.28999089631971 0.0 0.0 0.0 16.28999089631971 0.0 0.0 0.0 34.53561885213415" Properties=species:S:1:pos:R:3:initial_magmoms:R:1 pbc="T T T"
Si      -1.34801379      -1.36233270       1.37423866       0.00000000
Si       1.37396376       1.34473950       1.37486030       0.00000000
Si       1.32791193      -1.40103774      -1.38816343       0.00000000
Si      -1.35839052       1.47341421      -1.40511007       0.00000000
Si       2.37995271       0.24415452      -2.76656505       0.00000000
Si      -2.70205488       2.69771376       0.04787330       0.00000000
Si      -2.69566920      -2.73320136      -0.00206523       0.00000000
Si       2.73974994       2.69675894      -0.00244858       0.00000000
Si      -2.70677898      -0.00596214       2.73539177       0.00000000
Si       0.00982287       2.70849014       2.73432116       0.00000000
