10
Lattice="16.28999089631971 0.0 0.0 0.0 16.28999089631971 0.0 0.0 0.0 34.53561885213415" Properties=species:S:1:pos:R:3:initial_magmoms:R:1 pbc="T T T"
Si      -1.50972462       1.54196253       0.96071238       0.00000000
Si      -1.62012195      -1.84145418       0.37664567       0.00000000
Si       2.06413848      -0.12463479       1.43934179       0.00000000
Si       0.43378641       0.80746272      -2.35080635       0.00000000
Si      -0.40713597       3.01945480      -2.08816283       0.00000000
Si      -0.38323854       3.27699481       1.88378092       0.00000000
Si       1.85880303      -2.13912135       2.59400632       0.00000000
Si       0.74116242       3.80801134      -0.12260152       0.00000000
Si      -2.97329152      -1.12943457       2.26363840       0.00000000
Si      -0.46714833      -3.92740497       0.26499195       0.00000000
