10
Lattice="16.28999089631971 0.0 0.0 0.0 16.28999089631971 0.0 0.0 0.0 34.53561885213415" Properties=species:S:1:pos:R:3:initial_magmoms:R:1 pbc="T T T"
Si      -1.97247465      -1.28212074      -0.30857593       0.00000000
Si       0.57187674      -1.09719666       2.04406082       0.00000000
Si       0.55806282       2.27269188       0.48864474       0.00000000
Si       1.17900504      -0.64576818      -2.00683140       0.00000000
Si      -0.64114182      -3.28543236      -0.35333411       0.00000000
Si       1.38495951      -2.90918223      -1.53193184       0.00000000
Si       3.20653989       0.43939017      -1.54926873       0.00000000
Si      -1.19060352       3.48023537      -0.38866407       0.00000000
Si       2.51128269       2.62844430      -0.91764644       0.00000000
Si       0.10826334      -3.43675017       1.87742636       0.00000000
