10
Lattice="16.28999089631971 0.0 0.0 0.0 16.28999089631971 0.0 0.0 0.0 34.53561885213415" Properties=species:S:1:pos:R:3:initial_magmoms:R:1 pbc="T T T"
Si       1.42441389      -1.24276410       1.28871115       0.00000000
Si       1.68010173       0.92794356      -1.26988957       0.00000000
Si      -1.31861034       1.50184026       1.27145369       0.00000000
Si      -0.94302810      -1.76757903      -1.31111062       0.00000000
Si       1.18050372      -0.18779112      -3.46979353       0.00000000
Si       0.04759938      -2.56429524       2.64002506       0.00000000
Si      -2.66520690       0.14600727       2.64358223       0.00000000
Si       0.72694125       2.65098573      -2.63845165       0.00000000
Si       2.77159689      -2.60834828      -0.24749620       0.00000000
Si       2.76791535       0.14745708       2.64292605       0.00000000
