10
Lattice="16.28999089631971 0.0 0.0 0.0 16.28999089631971 0.0 0.0 0.0 34.53561885213415" Properties=species:S:1:pos:R:3:initial_magmoms:R:1 pbc="T T T"
Si       1.35734796      -1.35678270      -1.35662894       0.00000000
Si      -1.35764118       1.35744570      -1.35635265       0.00000000
Si      -1.35941679      -1.35683320       1.35731965       0.00000000
Si       1.35674523       1.36000323       1.35804490       0.00000000
Si      -0.00224802       2.71559187       2.71146202       0.00000000
Si       0.00040725       2.71409319      -2.71432848       0.00000000
Si       2.71546155       0.00004887      -2.71311973       0.00000000
Si      -2.71544526       0.00061902      -2.71336148       0.00000000
Si      -2.71502172      -0.00120546       2.71387952       0.00000000
Si      -2.71467963       2.71503801       0.00041443       0.00000000
