10
Lattice="16.28999089631971 0.0 0.0 0.0 16.28999089631971 0.0 0.0 0.0 34.53561885213415" Properties=species:S:1:pos:R:3:initial_magmoms:R:1 pbc="T T T"
Si       2.11328541       0.86828632       0.75681397       0.00000000
Si      -0.25736571      -2.37448971       0.40496489       0.00000000
Si      -1.48457286       0.70796014       1.78017400       0.00000000
Si      -0.34386561       0.35208880      -2.63617433       0.00000000
Si       1.41560100       2.93648101      -0.11648871       0.00000000
Si      -3.40045605       1.39238449       0.53488796       0.00000000
Si       3.48972525      -1.19918020       0.42644606       0.00000000
Si       2.20423248       0.45937474       3.04763192       0.00000000
Si       2.13327324      -3.10885920      -0.38172241       0.00000000
Si      -0.58344264      -2.58515199       2.79666144       0.00000000
