10
Lattice="16.28999089631971 0.0 0.0 0.0 16.28999089631971 0.0 0.0 0.0 34.53561885213415" Properties=species:S:1:pos:R:3:initial_magmoms:R:1 pbc="T T T"
Si      -0.56990565       2.06602812      -0.99048210       0.00000000
Si       2.21853510      -0.24755913       0.79884385       0.00000000
Si      -0.35018613      -1.76806773      -1.54422652       0.00000000
Si      -1.50741144      -0.22968900       1.82282552       0.00000000
Si      -0.95565285      -3.38847638       0.10502288       0.00000000
Si       0.33479208       1.52542818      -3.16222117       0.00000000
Si      -2.26606932      -1.08364338      -2.78951256       0.00000000
Si      -2.94666552       2.18774700      -0.85016380       0.00000000
Si      -3.67484481      -0.04145805      -1.24925764       0.00000000
Si       0.77087538       3.82195980      -0.21508795       0.00000000
