10
Lattice="16.28999089631971 0.0 0.0 0.0 16.28999089631971 0.0 0.0 0.0 34.53561885213415" Properties=species:S:1:pos:R:3:initial_magmoms:R:1 pbc="T T T"
Si      -0.87827535      -0.66091788      -2.06923730       0.00000000
Si       1.78007346      -1.48898745       0.34887902       0.00000000
Si      -1.32330186      -0.97951770       1.70554249       0.00000000
Si       1.35625653       1.97646570       0.31593202       0.00000000
Si       2.07277218      -0.86192019       2.56675770       0.00000000
Si       0.74839518       0.31398975      -3.48651081       0.00000000
Si       0.11217294      -2.75818045      -2.41566428       0.00000000
Si       2.81979900       1.33793028       2.09075300       0.00000000
Si      -0.09844047      -0.62727903       3.70377451       0.00000000
Si       1.26863262      -3.59563373      -0.54904758       0.00000000
