10
Lattice="16.28999089631971 0.0 0.0 0.0 16.28999089631971 0.0 0.0 0.0 34.53561885213415" Properties=species:S:1:pos:R:3:initial_magmoms:R:1 pbc="T T T"
Si      -0.49031271      -2.23414906      -0.36276234       0.00000000
Si      -0.42158520       1.18250739      -1.97968639       0.00000000
Si      -1.48177098       0.34538058       1.82289459       0.00000000
Si       2.26067733       0.48324285       0.57270449       0.00000000
Si       0.69849891      -0.58658661      -3.05529884       0.00000000
Si       0.82666863      -2.73423482       1.48689737       0.00000000
Si      -0.67241862       2.54715327       2.04337010       0.00000000
Si       1.99484082      -0.88042563       2.59666556       0.00000000
Si       1.67396040       1.87520706       2.37553387       0.00000000
Si      -2.83950990      -2.06624966      -0.40710610       0.00000000
