10
Lattice="16.28999089631971 0.0 0.0 0.0 16.28999089631971 0.0 0.0 0.0 34.53561885213415" Properties=species:S:1:pos:R:3:initial_magmoms:R:1 pbc="T T T"
Si      -2.04385743      -0.53375814      -1.01434623       0.00000000
Si       0.80935236       2.20177269       0.22047551       0.00000000
Si       1.48177098      -0.34538058      -1.82289459       0.00000000
Si       0.08819406      -1.41141773       1.96576852       0.00000000
Si      -0.72617562       2.79124263       1.94224975       0.00000000
Si       0.99145827      -2.57952965      -2.18565693       0.00000000
Si       3.15573138       1.52982648       0.55263928       0.00000000
Si      -1.35773892      -2.41163024      -2.23000069       0.00000000
Si       2.21601015      -0.91916325       2.76875665       0.00000000
Si       3.47661180      -1.22580621       0.77377097       0.00000000
