10
Lattice="16.28999089631971 0.0 0.0 0.0 16.28999089631971 0.0 0.0 0.0 34.53561885213415" Properties=species:S:1:pos:R:3:initial_magmoms:R:1 pbc="T T T"
Si       1.23406524       2.00772621       0.05822709       0.00000000
Si      -2.12180508       0.31118787      -1.11070066       0.00000000
Si       1.55911590      -1.77892406      -0.52794630       0.00000000
Si      -0.88946658       0.42793830       2.21691000       0.00000000
Si       2.11470264      -2.25933245       1.81170504       0.00000000
Si      -0.22270059       3.57257619      -0.89678692       0.00000000
Si      -2.50602102       2.72981304      -0.63611192       0.00000000
Si      -1.77036462      -0.61848080      -3.34805744       0.00000000
Si       0.45341586      -3.87477917      -0.96917361       0.00000000
Si      -3.91445442      -1.15313163      -0.26184921       0.00000000
