10
Lattice="16.28999089631971 0.0 0.0 0.0 16.28999089631971 0.0 0.0 0.0 34.53561885213415" Properties=species:S:1:pos:R:3:initial_magmoms:R:1 pbc="T T T"
Si      -1.34213310       1.30999293      -1.39682497       0.00000000
Si       1.34824185       1.36467846       1.36270721       0.00000000
Si      -1.36862064      -1.35016407       1.35804490       0.00000000
Si       1.31875695      -1.49498217      -1.30823415       0.00000000
Si      -2.43916686      -0.28582434      -2.74255933       0.00000000
Si       2.70000234       2.70733284      -0.01252608       0.00000000
Si       2.70295083       0.00511506       2.71909440       0.00000000
Si       2.70858717      -2.71813311       0.03765766       0.00000000
Si      -0.01060479      -2.70928764       2.71861090       0.00000000
Si      -2.71826343       2.71751409      -0.00990827       0.00000000
