10
Lattice="16.28999089631971 0.0 0.0 0.0 16.28999089631971 0.0 0.0 0.0 34.53561885213415" Properties=species:S:1:pos:R:3:initial_magmoms:R:1 pbc="T T T"
Si      -2.03602066       1.10159496      -0.21491528       0.00000000
Si       0.23091270      -0.93203235      -2.17018497       0.00000000
Si       1.42251806       1.93477959      -0.14995374       0.00000000
Si      -0.29240422      -1.63092222       1.78300593       0.00000000
Si       3.43931617       0.85983507       0.62564762       0.00000000
Si      -1.96400257       1.84524975      -2.41625139       0.00000000
Si      -1.24308862      -2.76677994      -2.02603321       0.00000000
Si      -1.42112203      -3.36540160       0.32380614       0.00000000
Si      -1.78499176      -0.26627634       3.20345672       0.00000000
Si      -0.05466796       0.98287344      -3.58483378       0.00000000
