10
Lattice="16.28999089631971 0.0 0.0 0.0 16.28999089631971 0.0 0.0 0.0 34.53561885213415" Properties=species:S:1:pos:R:3:initial_magmoms:R:1 pbc="T T T"
Si      -1.68010173      -0.92794356       1.26988957       0.00000000
Si      -0.95316048       1.72304217      -1.36856208       0.00000000
Si       1.05516846       1.79163936       1.24180519       0.00000000
Si      -0.49959801      -1.11573468      -2.19990396       0.00000000
Si       1.99765899      -1.71486459      -0.12842367       0.00000000
Si       1.36353816       1.88597475      -2.09619344       0.00000000
Si      -0.25568784      -2.17070766       2.55860073       0.00000000
Si       1.52234937      -0.32672853      -3.04716677       0.00000000
Si       2.44499868       0.56848842       2.58769700       0.00000000
Si      -1.95636384       0.44911530      -3.15491796       0.00000000
