10
Lattice="16.28999089631971 0.0 0.0 0.0 16.28999089631971 0.0 0.0 0.0 34.53561885213415" Properties=species:S:1:pos:R:3:initial_magmoms:R:1 pbc="T T T"
Si      -1.35804843      -1.35664749       1.35797583       0.00000000
Si       1.35728280       1.35822762       1.35776861       0.00000000
Si       1.36200690      -1.35782037      -1.35583462       0.00000000
Si      -1.35801585       1.35912357      -1.36056600       0.00000000
Si       2.71919196      -0.00884547      -2.68095324       0.00000000
Si       0.01060479       2.70928764      -2.71861090       0.00000000
Si       2.71355562       2.71440270       0.00048350       0.00000000
Si      -0.00040725      -2.71409319       2.71432848       0.00000000
Si       2.71437012       0.00146610       2.71457023       0.00000000
Si       2.71505430      -2.71404432       0.00120875       0.00000000
