10
Lattice="16.28999089631971 0.0 0.0 0.0 16.28999089631971 0.0 0.0 0.0 34.53561885213415" Properties=species:S:1:pos:R:3:initial_magmoms:R:1 pbc="T T T"
Si       1.75874985      -1.10827386       1.16032837       0.00000000
Si       0.02717172      -1.16255214      -2.13077980       0.00000000
Si       1.05163353       2.28851694      -0.51478822       0.00000000
Si      -1.40577813      -2.07462924       0.98126109       0.00000000
Si       0.80941752      -3.13960428       0.70259302       0.00000000
Si       1.24093962      -0.26052597       3.25418958       0.00000000
Si       0.83882097       0.54851688      -3.47273109       0.00000000
Si       2.46798387       1.57472172      -2.21083341       0.00000000
Si       1.53746649      -3.02357061      -1.79374651       0.00000000
Si      -3.15431415       1.47290922      -1.85131742       0.00000000
