10
Lattice="16.28999089631971 0.0 0.0 0.0 16.28999089631971 0.0 0.0 0.0 34.53561885213415" Properties=species:S:1:pos:R:3:initial_magmoms:R:1 pbc="T T T"
Si      -0.80935236      -2.20177269      -0.22047551       0.00000000
Si      -1.53552798       0.58946994       1.72177424       0.00000000
Si       0.46618722       1.51826058      -1.81122154       0.00000000
Si       2.34637902      -0.67194621       0.33216377       0.00000000
Si       0.67241862      -2.54715327      -2.04337010       0.00000000
Si       0.02145393       0.44015580       3.47342181       0.00000000
Si       2.11194963       2.93607702      -0.87903560       0.00000000
Si       2.93309595      -2.06391042      -1.47066562       0.00000000
Si      -0.72115830      -3.61319042       1.74529301       0.00000000
Si       1.86447195      -1.04760990       3.48519846       0.00000000
