10
Lattice="16.28999089631971 0.0 0.0 0.0 16.28999089631971 0.0 0.0 0.0 34.53561885213415" Properties=species:S:1:pos:R:3:initial_magmoms:R:1 pbc="T T T"
Si       1.09703376       1.59581727       1.34573437       0.00000000
Si      -1.66656474      -1.19348685       1.23024374       0.00000000
Si      -1.13814972       1.34902377      -1.61944514       0.00000000
Si       1.74959487      -1.27775502      -1.17604209       0.00000000
Si      -0.29595672      -2.42690049       2.73386326       0.00000000
Si       2.43916686       0.28582434       2.74255933       0.00000000
Si      -2.68685631       2.67939549      -0.13662298       0.00000000
Si       2.28446073       3.07918467      -0.05263231       0.00000000
Si      -2.78063784      -2.63831211      -0.37125811       0.00000000
Si       0.74639151      -2.55168189      -2.96239797       0.00000000
