10
Lattice="16.28999089631971 0.0 0.0 0.0 16.28999089631971 0.0 0.0 0.0 34.53561885213415" Properties=species:S:1:pos:R:3:initial_magmoms:R:1 pbc="T T T"
Si      -1.35044100       1.35876519       1.35818304       0.00000000
Si      -1.35531171      -1.35589815      -1.35731965       0.00000000
Si       1.36023129      -1.35633798       1.35897736       0.00000000
Si       1.36003581       1.35917244      -1.35666347       0.00000000
Si       0.00855225      -2.72577312       2.68466237       0.00000000
Si      -2.71132389      -2.71495656      -0.00013814       0.00000000
Si       0.00270414      -2.71329498      -2.71398312       0.00000000
Si      -2.71308321       0.00221544      -2.71436302       0.00000000
Si      -2.70661608      -0.00679293       2.72147736       0.00000000
Si      -2.71191033       2.71692765       0.00020721       0.00000000
