10
Lattice="16.28999089631971 0.0 0.0 0.0 16.28999089631971 0.0 0.0 0.0 34.53561885213415" Properties=species:S:1:pos:R:3:initial_magmoms:R:1 pbc="T T T"
Si       1.67264091      -1.65825684       0.17171119       0.00000000
Si      -1.74698847      -1.33921719      -0.87875931       0.00000000
Si       0.62452602       2.17621368      -0.77653382       0.00000000
Si      -0.87516396       0.87480558       2.05234937       0.00000000
Si       2.34742158      -0.76859478       2.21539212       0.00000000
Si       1.19407329       1.11490389       3.21122724       0.00000000
Si      -1.33343424       2.98020663      -1.87424908       0.00000000
Si       0.53550117      -3.71881152       0.46816511       0.00000000
Si      -2.63731842      -0.30651264      -2.80508814       0.00000000
Si      -2.61013041       2.45263869       1.53510912       0.00000000
