10
Lattice="16.28999089631971 0.0 0.0 0.0 16.28999089631971 0.0 0.0 0.0 34.53561885213415" Properties=species:S:1:pos:R:3:initial_magmoms:R:1 pbc="T T T"
Si       1.35187615      -1.36024758       1.36094589       0.00000000
Si       1.34651674       1.34271954      -1.38776282       0.00000000
Si      -1.36339711       1.35625653       1.36080775       0.00000000
Si      -1.36743966      -1.35949824      -1.37527818       0.00000000
Si      -0.17503931       2.54448171      -2.84097757       0.00000000
Si       2.71197712      -2.71294312       0.00334996       0.00000000
Si       2.71409482       2.71448415      -0.00103607       0.00000000
Si       2.71069021      -0.00110772       2.71816194       0.00000000
Si      -0.00450907       2.71420722       2.71805833       0.00000000
Si      -2.71896946       2.71464705       0.00404067       0.00000000
