10
Lattice="16.28999089631971 0.0 0.0 0.0 16.28999089631971 0.0 0.0 0.0 34.53561885213415" Properties=species:S:1:pos:R:3:initial_magmoms:R:1 pbc="T T T"
Si      -2.20996656      -0.11359017      -0.82346776       0.00000000
Si      -0.34266015      -1.41719742       1.88626748       0.00000000
Si       1.10570004       2.09585511       0.44122731       0.00000000
Si       1.33654563      -1.20418938      -1.61554262       0.00000000
Si       1.66128678       1.61544672       2.78087866       0.00000000
Si      -2.05470657      -0.31794822       2.99482693       0.00000000
Si       2.14066890       0.49950027      -3.01841477       0.00000000
Si      -3.52579131       0.51406353       1.13815649       0.00000000
Si      -2.67357996      -2.45314368      -0.99010221       0.00000000
Si       3.05862669      -2.23860438      -0.25217923       0.00000000
