10
Lattice="16.28999089631971 0.0 0.0 0.0 16.28999089631971 0.0 0.0 0.0 34.53561885213415" Properties=species:S:1:pos:R:3:initial_magmoms:R:1 pbc="T T T"
Si      -1.35545832      -1.35785148      -1.37424211       0.00000000
Si       1.36296801       1.35223616      -1.37469108       0.00000000
Si       1.28104560      -1.51018467       1.32748086       0.00000000
Si      -1.30634397       1.44686477       1.44120672       0.00000000
Si      -2.70734913       2.71768025      -0.01992706       0.00000000
Si       2.70629028       2.72160614       0.00165771       0.00000000
Si      -2.71285515      -2.72041764       0.01405600       0.00000000
Si       2.72096757      -2.72934456      -0.03059858       0.00000000
Si      -2.71379997      -0.00130646      -2.73694932       0.00000000
Si       0.00236205       2.71552997      -2.73622408       0.00000000
