10
Lattice="16.28999089631971 0.0 0.0 0.0 16.28999089631971 0.0 0.0 0.0 34.53561885213415" Properties=species:S:1:pos:R:3:initial_magmoms:R:1 pbc="T T T"
Si      -1.35707572       1.35708732       1.35718151       0.00000000
Si       1.35734633       1.35713619      -1.35697429       0.00000000
Si       1.35728117      -1.35775521       1.35797583       0.00000000
Si      -1.35888804      -1.35795069      -1.35725058       0.00000000
Si      -2.71446039       0.00043983      -2.71401766       0.00000000
Si      -2.71449297      -0.00026064       2.71491559       0.00000000
Si      -2.71512828       2.71448415       0.00013814       0.00000000
Si      -0.00120220       2.71490769       2.71508826       0.00000000
Si       2.71521557       2.71480995      -0.00048350       0.00000000
Si      -2.71538892      -2.71502172       0.00075978       0.00000000
