10
Lattice="16.28999089631971 0.0 0.0 0.0 16.28999089631971 0.0 0.0 0.0 34.53561885213415" Properties=species:S:1:pos:R:3:initial_magmoms:R:1 pbc="T T T"
Si       1.23224974      -1.75912682      -0.96813754       0.00000000
Si       1.47400132       1.83474759      -0.14415175       0.00000000
Si      -2.10983193       0.48104859      -1.03192487       0.00000000
Si      -0.17803341      -0.59862166       2.34983936       0.00000000
Si      -3.37043358       0.78769155       0.96306081       0.00000000
Si      -2.56859091      -0.94443393       2.33194989       0.00000000
Si       1.24308862       2.76677994       2.02603321       0.00000000
Si       3.42455615      -1.35897926      -0.19730210       0.00000000
Si       0.40386168      -1.77934271      -3.20794636       0.00000000
Si       0.66984480      -3.64168067       0.33824204       0.00000000
