10
Lattice="16.28999089631971 0.0 0.0 0.0 16.28999089631971 0.0 0.0 0.0 34.53561885213415" Properties=species:S:1:pos:R:3:initial_magmoms:R:1 pbc="T T T"
Si      -1.35557235       1.35839052      -1.35676708       0.00000000
Si      -1.35650088      -1.35707103       1.35801036       0.00000000
Si       1.35888804       1.35795069       1.35725058       0.00000000
Si       1.36339711      -1.35625653      -1.36080775       0.00000000
Si      -2.70881523      -0.00962739      -2.68116045       0.00000000
Si      -2.71295289      -2.71482624       0.00100153       0.00000000
Si      -2.71363707       0.00068418       2.71436302       0.00000000
Si      -2.71445157       2.71362078       0.00027629       0.00000000
Si       0.00181232       2.71503801       2.71443209       0.00000000
Si       0.00240150      -2.71551042       2.71446662       0.00000000
