10
Lattice="16.28999089631971 0.0 0.0 0.0 16.28999089631971 0.0 0.0 0.0 34.53561885213415" Properties=species:S:1:pos:R:3:initial_magmoms:R:1 pbc="T T T"
Si      -1.35798327       1.35461124      -1.35759594       0.00000000
Si       1.34760884       1.33850043       1.38674401       0.00000000
Si       1.35585972      -1.36101321      -1.35693976       0.00000000
Si      -1.37011932      -1.35187452       1.38028585       0.00000000
Si      -0.25560639       2.52117072       2.78533375       0.00000000
Si      -2.71557558       2.71132389       0.00075978       0.00000000
Si      -0.00056602       2.71195920      -2.71533001       0.00000000
Si       2.71379087      -0.00288333      -2.71453569       0.00000000
Si       2.71546874       2.71562445       0.00221028       0.00000000
Si      -2.71601541      -0.00239463      -2.71539909       0.00000000
