10
Lattice="16.28999089631971 0.0 0.0 0.0 16.28999089631971 0.0 0.0 0.0 34.53561885213415" Properties=species:S:1:pos:R:3:initial_magmoms:R:1 pbc="T T T"
Si      -1.12614399       1.45391508      -1.42532032       0.00000000
Si       0.75149028       1.88649603       1.23682481       0.00000000
Si       1.57099131      -1.23984819      -1.37147926       0.00000000
Si      -1.73439630      -0.78276708       1.56833240       0.00000000
Si       1.46548098       0.06372648       2.85727149       0.00000000
Si      -2.44164294      -2.51458956       0.06806974       0.00000000
Si      -3.24469107       1.07825139       1.23129911       0.00000000
Si      -2.43304182       2.78932041      -0.11065218       0.00000000
Si      -2.49193017       0.10966428      -2.75594392       0.00000000
Si       2.68550424       2.63319705       0.03356864       0.00000000
