10
Lattice="16.28999089631971 0.0 0.0 0.0 16.28999089631971 0.0 0.0 0.0 34.53561885213415" Properties=species:S:1:pos:R:3:initial_magmoms:R:1 pbc="T T T"
Si       0.81699956      -2.09631123      -0.78831048       0.00000000
Si       1.07901280       1.96625187      -0.82619607       0.00000000
Si       0.06460614      -0.01221750       2.43925212       0.00000000
Si      -2.08806849       0.67522050      -1.10876666       0.00000000
Si      -1.17830457      -3.28968405      -0.08454324       0.00000000
Si      -2.12864688       2.81579166      -0.12080566       0.00000000
Si      -1.19783628       0.55716687      -3.29545966       0.00000000
Si      -0.02410920       3.52520487       0.52542520       0.00000000
Si      -2.96780994      -1.91715381       0.94216674       0.00000000
Si       0.64517915       2.03698305      -3.10489201       0.00000000
