10
Lattice="16.28999089631971 0.0 0.0 0.0 16.28999089631971 0.0 0.0 0.0 34.53561885213415" Properties=species:S:1:pos:R:3:initial_magmoms:R:1 pbc="T T T"
Si      -0.07201809      -0.74365479       2.20133611       0.00000000
Si      -1.26957744       1.95962184       0.17271273       0.00000000
Si      -1.70979840      -1.37534841      -0.86283838       0.00000000
Si       1.90933461      -0.86237631      -1.16858239       0.00000000
Si       3.49884018       0.51808716      -0.08678806       0.00000000
Si       2.19491527      -2.77728210       0.24606642       0.00000000
Si      -1.94422779       2.23267482      -2.07403775       0.00000000
Si       1.96400257      -1.84524975       2.41625139       0.00000000
Si      -2.19170547      -1.75101210       2.29019631       0.00000000
Si      -2.89758375       1.79730828       1.98196574       0.00000000
