10
Lattice="16.28999089631971 0.0 0.0 0.0 16.28999089631971 0.0 0.0 0.0 34.53561885213415" Properties=species:S:1:pos:R:3:initial_magmoms:R:1 pbc="T T T"
Si       0.87457752       0.44294139       2.16973600       0.00000000
Si      -0.99320130      -2.20613841       0.34898262       0.00000000
Si      -2.05247484       1.33061607      -0.06931303       0.00000000
Si       1.55737354      -0.53268300      -1.98203481       0.00000000
Si       1.73836847      -1.78365726       2.42699197       0.00000000
Si      -2.74501161       0.68002605       2.15233004       0.00000000
Si      -1.01149497      -1.54522053      -3.14592035       0.00000000
Si      -0.29750427      -3.36799008      -1.52547367       0.00000000
Si      -1.19309589       3.57949944      -0.28291595       0.00000000
Si       2.27942616       2.40406191       1.88730355       0.00000000
