10
Lattice="16.28999089631971 0.0 0.0 0.0 16.28999089631971 0.0 0.0 0.0 34.53561885213415" Properties=species:S:1:pos:R:3:initial_magmoms:R:1 pbc="T T T"
Si      -0.87457752      -0.44294139      -2.16973600       0.00000000
Si       0.86379095      -2.22659865       0.25725597       0.00000000
Si       1.40484864       1.96112052      -0.28243245       0.00000000
Si      -1.88237466       0.24250923       1.53990957       0.00000000
Si      -3.61958913       0.23708466      -0.01740596       0.00000000
Si       1.29762460      -2.29732983       2.53595191       0.00000000
Si      -1.86777882      -2.64907980      -1.82075338       0.00000000
Si      -2.92705236       0.88767468      -2.23904903       0.00000000
Si      -0.97922448      -3.70641483       0.06668832       0.00000000
Si       0.19450260      -0.73837683       3.88757318       0.00000000
