10
Lattice="16.28999089631971 0.0 0.0 0.0 16.28999089631971 0.0 0.0 0.0 34.53561885213415" Properties=species:S:1:pos:R:3:initial_magmoms:R:1 pbc="T T T"
Si      -0.69253677      -0.65059002       2.22164307       0.00000000
Si       0.85937895       2.24888337      -0.21360292       0.00000000
Si      -1.93073967      -0.23301216      -1.46614145       0.00000000
Si       2.05247484      -1.33061607       0.06931303       0.00000000
Si      -0.51438933      -0.94680738      -3.16218664       0.00000000
Si      -0.90780912       2.95432182       1.40836332       0.00000000
Si      -2.10434220       1.21612995       2.48314692       0.00000000
Si       1.05927354      -3.53675448       0.41829565       0.00000000
Si       2.92705236      -0.88767468       2.23904903       0.00000000
Si      -1.22362335      -3.62980296       0.20897515       0.00000000
