10
Lattice="16.28999089631971 0.0 0.0 0.0 16.28999089631971 0.0 0.0 0.0 34.53561885213415" Properties=species:S:1:pos:R:3:initial_magmoms:R:1 pbc="T T T"
Si       0.32576742      -1.72444311      -1.59122953       0.00000000
Si      -1.13518494       2.06197191      -0.27397122       0.00000000
Si       2.09025135      -0.33692607       1.06431930       0.00000000
Si      -1.64683755      -0.83821824       1.52623346       0.00000000
Si       0.29810700      -3.41474238       0.11020322       0.00000000
Si      -3.32130294       1.09400382      -0.75408566       0.00000000
Si       2.40264468      -2.70532917       0.75643408       0.00000000
Si      -0.33225084       3.33451413       1.57503231       0.00000000
Si      -1.36220238      -3.14770041       1.76480565       0.00000000
Si      -1.41144705      -1.72986768      -3.14854506       0.00000000
