10
Lattice="16.28999089631971 0.0 0.0 0.0 16.28999089631971 0.0 0.0 0.0 34.53561885213415" Properties=species:S:1:pos:R:3:initial_magmoms:R:1 pbc="T T T"
Si       1.32323248       1.78443918       0.70058996       0.00000000
Si       1.24897452      -1.89560214      -0.60889784       0.00000000
Si      -2.01808665      -0.49282137       1.22390848       0.00000000
Si      -0.15346809       0.51502464      -2.40005417       0.00000000
Si       0.15892524      -1.85337846      -2.70793939       0.00000000
Si       0.95966575      -2.15269092       2.68359176       0.00000000
Si      -0.27093528       3.50785602       1.10293014       0.00000000
Si      -3.55853421       1.01126691       0.19450471       0.00000000
Si       2.85393374       2.24774307      -1.11387794       0.00000000
Si       2.47180292       1.28734983       2.68417887       0.00000000
