10
Lattice="16.28999089631971 0.0 0.0 0.0 16.28999089631971 0.0 0.0 0.0 34.53561885213415" Properties=species:S:1:pos:R:3:initial_magmoms:R:1 pbc="T T T"
Si      -0.33202278      -0.99753444      -2.13264473       0.00000000
Si      -2.04885846       0.09208737       1.21368593       0.00000000
Si       1.54044756      -1.50408828       1.02940377       0.00000000
Si       1.06034868       2.15085015       0.08381799       0.00000000
Si      -1.27338930       1.61746668       2.89988846       0.00000000
Si       0.62726274      -3.58006959       0.35267794       0.00000000
Si      -0.46926603       3.32115633       1.49701631       0.00000000
Si       3.55853421      -1.01126691      -0.19450471       0.00000000
Si      -0.04738761      -3.30701661      -1.89407254       0.00000000
Si       1.31481477      -0.15931620      -3.65887818       0.00000000
