10
Lattice="16.28999089631971 0.0 0.0 0.0 16.28999089631971 0.0 0.0 0.0 34.53561885213415" Properties=species:S:1:pos:R:3:initial_magmoms:R:1 pbc="T T T"
Si       0.92672737      -1.20177846      -1.86005494       0.00000000
Si       1.64564416       0.31166028       1.76487472       0.00000000
Si       1.06213962       2.21092767       0.01049883       0.00000000
Si      -2.23648668       0.52777971      -0.90600793       0.00000000
Si       2.97410507      -0.05659146      -1.67041975       0.00000000
Si      -0.00366525       1.68575436       3.14975381       0.00000000
Si       2.43886454       2.23826229      -1.85946783       0.00000000
Si       3.83061698       0.28702980       0.50860634       0.00000000
Si      -2.05102503       0.45809109      -3.31973822       0.00000000
Si      -3.91743549      -0.89054172      -0.14353011       0.00000000
