10
Lattice="16.28999089631971 0.0 0.0 0.0 16.28999089631971 0.0 0.0 0.0 34.53561885213415" Properties=species:S:1:pos:R:3:initial_magmoms:R:1 pbc="T T T"
Si       1.62190963       1.17739233       1.38725311       0.00000000
Si      -1.21692816      -1.65411918       1.33912424       0.00000000
Si       1.64930941      -1.37409408      -1.38487909       0.00000000
Si      -1.70789247       1.56450789      -1.37959514       0.00000000
Si       1.06580487       0.52517331      -3.13925497       0.00000000
Si       0.17528040       2.61565272      -2.36392990       0.00000000
Si       0.00366525      -1.68575436      -3.14975381       0.00000000
Si      -2.48108103      -0.19971540       2.78135321       0.00000000
Si       0.24440472       2.53980648       2.77532329       0.00000000
Si       2.87673974       2.78948331      -0.05681112       0.00000000
