10
Lattice="16.28999089631971 0.0 0.0 0.0 16.28999089631971 0.0 0.0 0.0 34.53561885213415" Properties=species:S:1:pos:R:3:initial_magmoms:R:1 pbc="T T T"
Si       1.08236232      -1.52941923       1.56461982       0.00000000
Si      -1.94549841      -1.14881967      -0.95361047       0.00000000
Si      -1.61907939       1.18897680       1.55717394       0.00000000
Si       1.93014901       0.22090869      -1.99690728       0.00000000
Si       2.33479750       2.32209130       0.27691020       0.00000000
Si      -0.86993487      -2.50471782      -2.59029861       0.00000000
Si       2.45986723      -2.89183338       0.17654964       0.00000000
Si       2.43373319      -0.18445167       2.94657374       0.00000000
Si      -2.98804212       2.49080357       0.05552985       0.00000000
Si      -0.28696464       2.53454059       2.94363821       0.00000000
