10
Lattice="16.28999089631971 0.0 0.0 0.0 16.28999089631971 0.0 0.0 0.0 34.53561885213415" Properties=species:S:1:pos:R:3:initial_magmoms:R:1 pbc="T T T"
Si      -1.71512523      -0.97086771      -1.32009023       0.00000000
Si       1.77248232      -1.65293001       0.02624708       0.00000000
Si      -0.86496642       0.28158894       2.34718011       0.00000000
Si       1.02555324       1.75409091      -1.49791423       0.00000000
Si      -0.26777502      -2.17279278      -2.83195686       0.00000000
Si       1.44969597      -2.05304499       2.64757109       0.00000000
Si       2.46547521       0.53493102      -2.85599367       0.00000000
Si       0.49148559       2.19126794       3.15534858       0.00000000
Si       1.09546992      -3.45748734      -1.38128738       0.00000000
Si      -2.83175586      -2.65214232       0.37136172       0.00000000
