10
Lattice="16.28999089631971 0.0 0.0 0.0 16.28999089631971 0.0 0.0 0.0 34.53561885213415" Properties=species:S:1:pos:R:3:initial_magmoms:R:1 pbc="T T T"
Si       0.26310779       1.83290193       1.53873536       0.00000000
Si       1.26859908      -1.82456145       0.93774618       0.00000000
Si      -2.20392297      -0.64912392      -1.23247332       0.00000000
Si       1.33345120       1.16227521      -1.92239176       0.00000000
Si       2.69917874      -2.17461726      -1.04915815       0.00000000
Si      -1.77991056       2.95898076       1.24393915       0.00000000
Si       3.54682889       0.10739997      -1.70053482       0.00000000
Si      -0.13624956      -3.78568197       1.22017863       0.00000000
Si       1.68280980       3.55580631       0.65603898       0.00000000
Si      -3.97111104       0.05631453       0.38949293       0.00000000
