10
Lattice="16.28999089631971 0.0 0.0 0.0 16.28999089631971 0.0 0.0 0.0 34.53561885213415" Properties=species:S:1:pos:R:3:initial_magmoms:R:1 pbc="T T T"
Si      -0.85937895      -2.24888337       0.21360292       0.00000000
Si      -1.76718807       0.70543845       1.62196625       0.00000000
Si       2.20392297       0.64912392       1.23247332       0.00000000
Si       0.32278635       0.40011498      -2.62132401       0.00000000
Si      -2.31466239       2.33463393      -0.30039098       0.00000000
Si      -1.44969597       2.05304499      -2.64757109       0.00000000
Si       1.19309589      -3.57949944       0.28291595       0.00000000
Si      -2.79011862      -2.48189553      -1.25253852       0.00000000
Si       3.53737417       1.81139913      -0.68991844       0.00000000
Si      -1.55191572      -2.89947339       2.43524599       0.00000000
