10
Lattice="16.28999089631971 0.0 0.0 0.0 16.28999089631971 0.0 0.0 0.0 34.53561885213415" Properties=species:S:1:pos:R:3:initial_magmoms:R:1 pbc="T T T"
Si       2.12052957       0.81998973       0.25376787       0.00000000
Si      -0.43383365       0.07073118      -2.27869594       0.00000000
Si      -1.10312200       1.55895300       1.35162127       0.00000000
Si      -1.07901280      -1.96625187       0.82619607       0.00000000
Si      -3.20765968       0.84953979       0.70539041       0.00000000
Si      -3.16708129      -1.29103137      -0.28257059       0.00000000
Si      -2.27684908      -1.40908500      -2.46926359       0.00000000
Si      -1.29762460       2.29732983      -2.53595191       0.00000000
Si       2.13752004       1.81328877       2.37556841       0.00000000
Si       3.54474798      -0.95145003      -0.24917463       0.00000000
