10
Lattice="16.28999089631971 0.0 0.0 0.0 16.28999089631971 0.0 0.0 0.0 34.53561885213415" Properties=species:S:1:pos:R:3:initial_magmoms:R:1 pbc="T T T"
Si       1.35663120       1.35674523       1.35690522       0.00000000
Si      -1.35718017       1.35783666      -1.35780315       0.00000000
Si       1.35757602      -1.35726651      -1.35825211       0.00000000
Si      -1.35884175      -1.35716877       1.35731965       0.00000000
Si       0.00131949      -2.71132389       2.71695319       0.00000000
Si      -2.71425376      -0.00048870      -2.71446662       0.00000000
Si      -2.71235813      -0.00247608       2.71643515       0.00000000
Si       2.71497285      -2.71451673      -0.00006907       0.00000000
Si      -0.00029322      -2.71494027      -2.71474291       0.00000000
Si      -2.71471527      -2.71498914      -0.00058711       0.00000000
