10
Lattice="16.28999089631971 0.0 0.0 0.0 16.28999089631971 0.0 0.0 0.0 34.53561885213415" Properties=species:S:1:pos:R:3:initial_magmoms:R:1 pbc="T T T"
Si       1.24247088      -1.35870003       1.42200490       0.00000000
Si       1.36533006       1.34449515      -1.36491749       0.00000000
Si      -1.34807895      -1.36863693      -1.36581542       0.00000000
Si      -1.30629510       1.31152419       1.53794104       0.00000000
Si      -0.43515477      -2.36063277       2.86359151       0.00000000
Si      -2.71748803       2.69583210       0.03301607       0.00000000
Si       2.70361872      -2.71746522       0.01015348       0.00000000
Si       0.00723276       2.69943219      -2.72586338       0.00000000
Si       2.73724128       2.69374698       0.02265538       0.00000000
Si      -2.70824019      -0.01448181      -2.72544896       0.00000000
