10
Lattice="16.28999089631971 0.0 0.0 0.0 16.28999089631971 0.0 0.0 0.0 34.53561885213415" Properties=species:S:1:pos:R:3:initial_magmoms:R:1 pbc="T T T"
Si       1.39766571      -1.41750693       1.35103416       0.00000000
Si      -1.43057966       0.35005581       1.98690433       0.00000000
Si      -0.17399349      -1.35446463      -2.10214976       0.00000000
Si       0.84765015       2.28201723      -0.65137667       0.00000000
Si       1.90633725       1.34912151      -2.64283971       0.00000000
Si      -2.69917874       2.17461726       1.04915815       0.00000000
Si      -1.36572754       3.33689247      -0.87323361       0.00000000
Si      -2.15263228      -2.58668910      -1.88243403       0.00000000
Si       3.69918207      -0.03906342      -1.22380487       0.00000000
Si       0.15174135       0.78599250       3.82903527       0.00000000
