10
Lattice="16.28999089631971 0.0 0.0 0.0 16.28999089631971 0.0 0.0 0.0 34.53561885213415" Properties=species:S:1:pos:R:3:initial_magmoms:R:1 pbc="T T T"
Si       1.15297362      -2.08595079      -0.11165372       0.00000000
Si      -1.35316957       0.71201961       1.88699273       0.00000000
Si      -1.58232100      -0.43593669      -1.84213094       0.00000000
Si       1.62012195       1.84145418      -0.37664567       0.00000000
Si       0.11039733       3.38341671       0.58406671       0.00000000
Si       1.24592436      -2.20349943      -2.47800111       0.00000000
Si      -2.11431331       2.81049741       1.06860172       0.00000000
Si      -0.15174135      -0.78599250      -3.82903527       0.00000000
Si       1.52790426      -0.76160637       3.58189825       0.00000000
Si      -0.09765855       0.96568749       3.92193614       0.00000000
