10
Lattice="16.28999089631971 0.0 0.0 0.0 16.28999089631971 0.0 0.0 0.0 34.53561885213415" Properties=species:S:1:pos:R:3:initial_magmoms:R:1 pbc="T T T"
Si      -1.32323248      -1.78443918      -0.70058996       0.00000000
Si       1.14857043      -0.49708935       1.98358891       0.00000000
Si      -1.59416776       1.72341684       0.40234018       0.00000000
Si       1.53070125       0.46330389      -1.81446789       0.00000000
Si      -1.47670057      -1.26941454      -3.10064413       0.00000000
Si       2.68597176       2.41644231      -1.02943830       0.00000000
Si       2.43492657       1.41327153       2.55453208       0.00000000
Si      -1.03176283       3.60597069      -0.90403940       0.00000000
Si       0.27519023       0.20963601      -3.84941130       0.00000000
Si      -0.22815448      -0.52442397       3.85355558       0.00000000
