10
Lattice="16.28999089631971 0.0 0.0 0.0 16.28999089631971 0.0 0.0 0.0 34.53561885213415" Properties=species:S:1:pos:R:3:initial_magmoms:R:1 pbc="T T T"
Si       1.35137087       1.34496756       1.38195392       0.00000000
Si      -1.36587348      -1.36454814       1.37404526       0.00000000
Si       1.37750491      -1.36241415      -1.38807018       0.00000000
Si      -1.08236232       1.52941923      -1.56461982       0.00000000
Si      -0.24440472      -2.53980648      -2.77532329       0.00000000
Si       2.71112975       2.69388561       0.05047729       0.00000000
Si      -2.70144171       2.71839603      -0.00744588       0.00000000
Si      -0.00500261       2.70565772       2.73737411       0.00000000
Si       2.70640565      -0.00979029       2.73799575       0.00000000
Si       2.71751543      -2.73702951       0.00053876       0.00000000
