10
Lattice="16.28999089631971 0.0 0.0 0.0 16.28999089631971 0.0 0.0 0.0 34.53561885213415" Properties=species:S:1:pos:R:3:initial_magmoms:R:1 pbc="T T T"
Si      -0.33972632       1.20306537      -2.05984360       0.00000000
Si       2.21337769      -1.05487524       0.22185694       0.00000000
Si      -0.36435517       2.53510097       0.35910157       0.00000000
Si      -1.33345120      -1.16227521       1.92239176       0.00000000
Si       0.34935860       2.39353110       2.57843074       0.00000000
Si      -1.34755834      -0.59096862      -3.30778889       0.00000000
Si      -1.07034341       0.67062672       3.46112712       0.00000000
Si       1.36572754      -3.33689247       0.87323361       0.00000000
Si      -3.21458782      -1.41128415      -1.93140556       0.00000000
Si      -3.53737417      -1.81139913       0.68991844       0.00000000
