10
Lattice="16.28999089631971 0.0 0.0 0.0 16.28999089631971 0.0 0.0 0.0 34.53561885213415" Properties=species:S:1:pos:R:3:initial_magmoms:R:1 pbc="T T T"
Si      -1.33692030       1.91203875      -0.38148066       0.00000000
Si      -1.28635614      -1.91036088      -0.57094317       0.00000000
Si       1.60904475       0.33669801      -1.72129074       0.00000000
Si       0.68352840       0.03500721       2.42637033       0.00000000
Si       1.70012214      -2.12268474       2.17529624       0.00000000
Si      -2.66308106      -1.93769550       1.29902349       0.00000000
Si       0.25104519       1.00317078      -3.58397038       0.00000000
Si      -0.23943042       3.60306197       0.95608461       0.00000000
Si      -2.43492657      -1.41327153      -2.55453208       0.00000000
Si       2.94037758      -1.66661361      -1.76604893       0.00000000
