10
Lattice="10.86 0.0 0.0 0.0 10.86 0.0 0.0 0.0 10.86" Properties=species:S:1:pos:R:3:initial_magmoms:R:1 pbc="T T T"
Si      -1.26016182      -1.43574630       1.16686356       0.00000000
Si      -1.26016182       1.27925370      -1.54813644       0.00000000
Si       1.61087466       0.80951526       1.81238196       0.00000000
Si       1.45483818      -1.43574630      -1.54813644       0.00000000
Si       2.51310174       2.56466502       0.24529482       0.00000000
Si       0.38299962      -2.62409094       2.44408644       0.00000000
Si      -2.61766182      -0.07824630       2.52436356       0.00000000
Si      -2.61766182       2.63675370      -0.19063644       0.00000000
Si       0.24962796       2.79312684       2.60090484       0.00000000
Si      -2.61766182      -2.79324630      -0.19063644       0.00000000
