10
Lattice="10.86 0.0 0.0 0.0 10.86 0.0 0.0 0.0 10.86" Properties=species:S:1:pos:R:3:initial_magmoms:R:1 pbc="T T T"
Si       1.45037472      -1.13257854      -1.25220144       0.00000000
Si      -1.26462528      -1.13257854       1.46279856       0.00000000
Si      -1.26462528       1.58242146      -1.25220144       0.00000000
Si       0.09287472      -2.49007854      -2.60970144       0.00000000
Si      -2.62212528      -2.49007854       0.10529856       0.00000000
Si      -2.62212528       0.22492146      -2.60970144       0.00000000
Si       2.63261604       0.00194394       2.65468356       0.00000000
Si       2.80787472      -2.49007854       0.10529856       0.00000000
Si       0.09287472      -2.49007854       2.82029856       0.00000000
Si      -2.69404020       0.33494412       2.67535014       0.00000000
