10
Lattice="16.28999089631971 0.0 0.0 0.0 16.28999089631971 0.0 0.0 0.0 34.40785480372833" Properties=species:S:1:pos:R:3:initial_magmoms:R:1 pbc="T T T"
Si      -2.23414092      -0.74674989      -0.63483357       0.00000000
Si       0.59937426       2.26779606      -0.73210463       0.00000000
Si       1.39005828      -0.87640200      -1.85906573       0.00000000
Si       1.15587324      -1.23072579       2.05003490       0.00000000
Si      -1.52461368       1.44990774       2.10485008       0.00000000
Si       2.56192830      -2.64660209       0.73714741       0.00000000
Si       3.70926558      -1.19501811      -0.85397732       0.00000000
Si       2.58520671       3.00679191       0.54864043       0.00000000
Si       0.91157211       0.45610371      -3.91046318       0.00000000
Si      -3.06514595      -2.58773329       0.64997850       0.00000000
