10
Lattice="16.28999089631971 0.0 0.0 0.0 16.28999089631971 0.0 0.0 0.0 34.40785480372833" Properties=species:S:1:pos:R:3:initial_magmoms:R:1 pbc="T T T"
Si      -1.35042471      -1.35681691       1.39509478       0.00000000
Si       1.36366848       1.35760860       1.39506037       0.00000000
Si       1.40605506      -1.41587630      -1.31288749       0.00000000
Si      -1.15587324       1.23072579      -2.05003490       0.00000000
Si      -2.68048692       2.68063353       0.05481518       0.00000000
Si      -2.72008791      -2.70781079       0.01863530       0.00000000
Si       2.72212416       2.71135647       0.00426658       0.00000000
Si      -2.70819621      -0.00490329       2.75933258       0.00000000
Si       2.55339234       0.03570768      -2.90401222       0.00000000
Si       0.00943191       2.71049310       2.76012396       0.00000000
