10
Lattice="16.28999089631971 0.0 0.0 0.0 16.28999089631971 0.0 0.0 0.0 34.40785480372833" Properties=species:S:1:pos:R:3:initial_magmoms:R:1 pbc="T T T"
Si       0.88881498       1.70808469      -1.28351693       0.00000000
Si      -0.75810402       0.89966086       2.02490339       0.00000000
Si      -1.79945856      -0.96543890      -1.35040583       0.00000000
Si       1.74897585      -1.74515814       0.27509095       0.00000000
Si       2.18382111       0.30669672      -2.65793945       0.00000000
Si      -1.30404708      -1.25554590       3.03515298       0.00000000
Si      -0.55162827      -2.41874964      -2.67741431       0.00000000
Si       0.80993880      -3.60835947      -1.12465577       0.00000000
Si       1.74619026       3.48136522      -0.00261500       0.00000000
Si      -2.80236870       2.09182822       1.73071606       0.00000000
