10
Lattice="16.28999089631971 0.0 0.0 0.0 16.28999089631971 0.0 0.0 0.0 34.40785480372833" Properties=species:S:1:pos:R:3:initial_magmoms:R:1 pbc="T T T"
Si      -0.15397308       2.02803332       1.24897142       0.00000000
Si       0.93121785      -1.06087680       1.92556785       0.00000000
Si      -2.06325882      -0.99611460      -0.73099528       0.00000000
Si       1.14808662       0.60531359      -2.04121272       0.00000000
Si       2.99480247       0.12602759       1.92904305       0.00000000
Si       0.08200386       2.65672958      -2.57869812       0.00000000
Si       0.29242179       3.69873572      -0.40587528       0.00000000
Si      -3.37908357      -1.24035059       1.20795723       0.00000000
Si       1.85399748       1.99243967       2.69214088       0.00000000
Si      -2.28876129       2.06281247       2.34107734       0.00000000
