10
Lattice="16.28999089631971 0.0 0.0 0.0 16.28999089631971 0.0 0.0 0.0 34.40785480372833" Properties=species:S:1:pos:R:3:initial_magmoms:R:1 pbc="T T T"
Si       1.35633798       1.35786924      -1.35869813       0.00000000
Si      -1.35615879       1.35992178       1.36010885       0.00000000
Si      -1.35843939      -1.35881406      -1.35962714       0.00000000
Si       1.35669636      -1.36309833       1.35814760       0.00000000
Si       2.71246419       2.71492398      -0.00086020       0.00000000
Si       2.71366965      -2.71411600      -0.00130750       0.00000000
Si       2.71371852       0.00034209      -2.71574468       0.00000000
Si      -2.71720458      -2.71368105      -0.00340638       0.00000000
Si      -0.00144981      -2.71484579      -2.71605435       0.00000000
Si      -2.71624347       2.71489140      -0.00051612       0.00000000
