10
Lattice="16.28999089631971 0.0 0.0 0.0 16.28999089631971 0.0 0.0 0.0 34.40785480372833" Properties=species:S:1:pos:R:3:initial_magmoms:R:1 pbc="T T T"
Si      -0.85717980       0.58466439       2.07008093       0.00000000
Si       1.81094301      -1.18654731      -0.82919536       0.00000000
Si       0.27974817       2.17362357      -0.81415912       0.00000000
Si      -1.31463558      -2.26326744      -0.37683504       0.00000000
Si      -1.68966396      -0.58686354      -2.30309105       0.00000000
Si       0.01068624       1.22738634      -2.99300333       0.00000000
Si       0.89389746      -3.22961467      -0.15094734       0.00000000
Si       1.34669430      -0.75466683      -3.13703469       0.00000000
Si      -2.69139959       1.94944059       1.48635134       0.00000000
Si      -1.56686994       3.39053544      -0.01916519       0.00000000
