10
Lattice="16.28999089631971 0.0 0.0 0.0 16.28999089631971 0.0 0.0 0.0 34.40785480372833" Properties=species:S:1:pos:R:3:initial_magmoms:R:1 pbc="T T T"
Si      -0.27974817      -2.17362357       0.81415912       0.00000000
Si      -1.84661811       1.21691187       0.79499393       0.00000000
Si       1.96463916       0.85701690       0.98846941       0.00000000
Si      -0.26906193      -0.94623723      -2.17884422       0.00000000
Si      -0.98670159       2.64293847      -1.65329835       0.00000000
Si       1.23002532       3.07141434       1.05962489       0.00000000
Si      -1.13692797      -1.58895918       2.88424004       0.00000000
Si       1.53119484      -3.36017088      -0.01503624       0.00000000
Si      -0.86493384       2.91998250       2.10269959       0.00000000
Si      -1.96941213      -2.76048711      -1.48893193       0.00000000
