10
Lattice="16.28999089631971 0.0 0.0 0.0 16.28999089631971 0.0 0.0 0.0 34.40785480372833" Properties=species:S:1:pos:R:3:initial_magmoms:R:1 pbc="T T T"
Si       0.26906193       0.94623723       2.17884422       0.00000000
Si       1.33600806      -1.98205317      -0.14403136       0.00000000
Si      -1.70035020      -1.81424988       0.68991228       0.00000000
Si       0.59448726       2.06353575      -1.74592434       0.00000000
Si      -1.64599047       1.06771176      -2.52099611       0.00000000
Si      -0.01068624      -1.22738634       2.99300333       0.00000000
Si       3.24070002      -0.67583952      -1.13253517       0.00000000
Si      -2.29441392      -2.38734837      -1.60086075       0.00000000
Si      -0.71763966       3.58917570       0.52554587       0.00000000
Si       1.80025677      -2.41393365       2.16380797       0.00000000
