10
Lattice="16.28999089631971 0.0 0.0 0.0 16.28999089631971 0.0 0.0 0.0 34.40785480372833" Properties=species:S:1:pos:R:3:initial_magmoms:R:1 pbc="T T T"
Si      -2.06705439      -0.49287024       0.90158952       0.00000000
Si      -0.49865319       0.62687178      -2.20492538       0.00000000
Si       1.36901160      -1.91783799      -0.17578983       0.00000000
Si       0.52272981       2.04318954       1.18070620       0.00000000
Si      -3.15511236       1.55921364       1.00770341       0.00000000
Si      -1.68147009      -1.33739271       3.04960428       0.00000000
Si       2.65067622       1.69427403       2.02517865       0.00000000
Si      -1.23326703       2.84126922      -2.13376990       0.00000000
Si       1.46590452       0.67365666      -3.47615870       0.00000000
Si       0.10410939       3.81739860      -0.39723891       0.00000000
