10
Lattice="16.28999089631971 0.0 0.0 0.0 16.28999089631971 0.0 0.0 0.0 34.40785480372833" Properties=species:S:1:pos:R:3:initial_magmoms:R:1 pbc="T T T"
Si      -2.15701496       0.42304153      -0.84306173       0.00000000
Si      -0.39490707      -1.75728768       1.55705952       0.00000000
Si       1.07934282       1.78167314       1.17840087       0.00000000
Si       1.60857234      -0.46239558      -1.73419126       0.00000000
Si      -0.26277236       1.55162576       3.11934904       0.00000000
Si       3.48117300      -0.82014027      -0.33551118       0.00000000
Si       0.70431444       3.45807704      -0.74785514       0.00000000
Si      -2.68847621      -2.11962615       1.19519191       0.00000000
Si      -2.99389742      -1.74274071      -1.09723270       0.00000000
Si       3.28787586       0.81532590       1.40428856       0.00000000
