10
Lattice="16.28999089631971 0.0 0.0 0.0 16.28999089631971 0.0 0.0 0.0 34.40785480372833" Properties=species:S:1:pos:R:3:initial_magmoms:R:1 pbc="T T T"
Si       1.35607734      -1.35301482       1.35353695       0.00000000
Si      -1.35897696      -1.35562122      -1.35694333       0.00000000
Si       1.35571896       1.35928647      -1.35721859       0.00000000
Si      -1.36125756       1.36197432       1.36138194       0.00000000
Si       2.67994935       0.00560376       2.71268238       0.00000000
Si       2.71226871      -2.71321353       0.00061934       0.00000000
Si      -0.00117288      -2.71292031      -2.71474685       0.00000000
Si       2.71378368       0.00131949      -2.71433396       0.00000000
Si      -2.71643895      -2.71324611       0.00096342       0.00000000
Si      -0.00141723       2.71674846      -2.71419633       0.00000000
