10
Lattice="16.28999089631971 0.0 0.0 0.0 16.28999089631971 0.0 0.0 0.0 34.40785480372833" Properties=species:S:1:pos:R:3:initial_magmoms:R:1 pbc="T T T"
Si       0.73461384      -2.21439744      -0.07115548       0.00000000
Si      -2.09495916      -0.15143184       1.04307470       0.00000000
Si       1.33737642       0.97612938       1.73653099       0.00000000
Si      -0.05390361       0.39019437      -2.43270551       0.00000000
Si      -1.23002532      -3.07141434      -1.05962489       0.00000000
Si      -2.21672691      -0.42847587      -2.71292324       0.00000000
Si       0.67888575       2.62021392      -2.27735396       0.00000000
Si      -3.07664343      -1.85450247      -0.26463096       0.00000000
Si       3.39742611       1.21933908       0.60113997       0.00000000
Si       2.69917155      -2.16761256      -1.34238880       0.00000000
