10
Lattice="16.28999089631971 0.0 0.0 0.0 16.28999089631971 0.0 0.0 0.0 34.40785480372833" Properties=species:S:1:pos:R:3:initial_magmoms:R:1 pbc="T T T"
Si      -0.73278936      -2.23001955      -0.15535155       0.00000000
Si      -1.43327565       1.44748053       1.21229263       0.00000000
Si       2.12933106      -0.02003670       1.06888061       0.00000000
Si      -0.98416035      -1.23303897      -2.76009643       0.00000000
Si       0.65529783       2.77441506      -1.58431056       0.00000000
Si      -0.67888575      -2.62021392       2.27735396       0.00000000
Si      -0.08231337       2.00689542       3.10902668       0.00000000
Si      -1.10146464       3.55965822       0.14114110       0.00000000
Si       3.63255597      -0.55548900      -0.64501001       0.00000000
Si       1.24092333      -3.38875983      -1.00047775       0.00000000
