10
Lattice="16.28999089631971 0.0 0.0 0.0 16.28999089631971 0.0 0.0 0.0 34.40785480372833" Properties=species:S:1:pos:R:3:initial_magmoms:R:1 pbc="T T T"
Si       2.12794641      -0.34891551       0.84447245       0.00000000
Si      -0.73756233       0.50233473       2.16016074       0.00000000
Si      -0.41862042       1.77420906      -1.57794510       0.00000000
Si      -0.52272981      -2.04318954      -1.18070620       0.00000000
Si       3.15908712      -0.95001651      -1.18521363       0.00000000
Si      -3.04681644       0.46486773       1.88586117       0.00000000
Si      -2.58978420      -2.53605978      -0.27911667       0.00000000
Si      -3.67784217      -0.48397590      -0.17300279       0.00000000
Si       1.64142927       2.01741876      -2.71333613       0.00000000
Si       1.99371681      -2.43198297       2.06333698       0.00000000
