10
Lattice="16.28999089631971 0.0 0.0 0.0 16.28999089631971 0.0 0.0 0.0 34.40785480372833" Properties=species:S:1:pos:R:3:initial_magmoms:R:1 pbc="T T T"
Si      -2.30925411      -0.03746700      -0.27429957       0.00000000
Si       0.73756233      -0.50233473      -2.16016074       0.00000000
Si       0.58194396       2.21042268       0.58018557       0.00000000
Si       0.53708130      -1.43713638       1.87526354       0.00000000
Si       2.86550874      -0.85125024      -1.31568829       0.00000000
Si      -1.32734178      -1.08949149       3.22023293       0.00000000
Si      -3.06582687      -1.25361324       1.62783652       0.00000000
Si       0.57886515      -3.53927943       0.88139210       0.00000000
Si      -0.68473386       2.71777473       2.46976279       0.00000000
Si      -3.16571715       2.15234883      -0.28840680       0.00000000
