10
Lattice="16.28999089631971 0.0 0.0 0.0 16.28999089631971 0.0 0.0 0.0 34.40785480372833" Properties=species:S:1:pos:R:3:initial_magmoms:R:1 pbc="T T T"
Si       0.66520215       2.03502825       0.87100092       0.00000000
Si       1.86442308      -0.34764489      -1.34496939       0.00000000
Si      -1.73848509      -0.16412175      -1.59239641       0.00000000
Si      -0.85343310      -1.53244917       1.62704514       0.00000000
Si      -3.14199891      -0.71913834       1.08728882       0.00000000
Si      -1.33864704       2.41893468       2.07558619       0.00000000
Si       1.32734178       1.08949149      -3.22023293       0.00000000
Si      -0.98191233       1.05202449      -3.49453250       0.00000000
Si      -2.05099245      -2.46669696      -2.14374818       0.00000000
Si       3.85750458      -0.27890109      -0.01713512       0.00000000
