10
Lattice="16.28999089631971 0.0 0.0 0.0 16.28999089631971 0.0 0.0 0.0 34.40785480372833" Properties=species:S:1:pos:R:3:initial_magmoms:R:1 pbc="T T T"
Si       1.72172268       1.44207781       0.79289505       0.00000000
Si      -1.11861801       1.02741030      -1.86046816       0.00000000
Si       1.23241995      -1.88199999      -0.90224327       0.00000000
Si      -1.95162345      -0.45737433       1.42462362       0.00000000
Si      -2.99151189      -0.37760220      -1.90660912       0.00000000
Si       3.19168341       1.20688409      -1.14285754       0.00000000
Si       0.37375776       3.33602000       1.33333953       0.00000000
Si       3.43968237      -1.10022660      -1.32838479       0.00000000
Si      -1.96089246      -2.75004522       1.89934905       0.00000000
Si       0.23198589      -2.56197717      -2.91851028       0.00000000
