10
Lattice="16.28999089631971 0.0 0.0 0.0 16.28999089631971 0.0 0.0 0.0 34.40785480372833" Properties=species:S:1:pos:R:3:initial_magmoms:R:1 pbc="T T T"
Si      -1.23447249      -1.15826787      -1.61591561       0.00000000
Si       1.42886106      -1.30232588       1.32369844       0.00000000
Si      -1.31487993       1.44401239       1.31240922       0.00000000
Si       1.65385854       1.05240079      -1.30765508       0.00000000
Si      -2.65126266      -2.61573973      -0.18624294       0.00000000
Si      -2.27716281       0.58704436      -2.92018048       0.00000000
Si       2.66499513       2.66014234       0.02441583       0.00000000
Si       0.05882319      -2.63851315       2.69024501       0.00000000
Si      -2.65877235       0.07656137       2.69007297       0.00000000
Si       0.50756382      -2.21280658      -3.11413767       0.00000000
