10
Lattice="16.28999089631971 0.0 0.0 0.0 16.28999089631971 0.0 0.0 0.0 34.40785480372833" Properties=species:S:1:pos:R:3:initial_magmoms:R:1 pbc="T T T"
Si      -1.35793440      -1.35715778       1.35714978       0.00000000
Si       1.35702216       1.35872798       1.35677129       0.00000000
Si       1.35736425      -1.35725552      -1.35790675       0.00000000
Si      -1.35809730       1.35799819      -1.35797556       0.00000000
Si       0.00004887       2.70974565       2.71622639       0.00000000
Si      -0.00017919      -2.71326770      -2.71584791       0.00000000
Si      -2.71508688       2.71402992      -0.00154835       0.00000000
Si       2.71469592      -2.71461977      -0.00041289       0.00000000
Si      -2.71365336      -0.00138065      -2.71577909       0.00000000
Si       0.00099369       2.71359009      -2.71584791       0.00000000
