10
Lattice="16.28999089631971 0.0 0.0 0.0 16.28999089631971 0.0 0.0 0.0 34.40785480372833" Properties=species:S:1:pos:R:3:initial_magmoms:R:1 pbc="T T T"
Si       2.23816455       0.73023183       0.02408551       0.00000000
Si      -1.06608276       2.05141599      -0.53748540       0.00000000
Si       0.34466382      -1.95006680      -1.35109399       0.00000000
Si      -1.14808662      -0.60531359       2.04121272       0.00000000
Si       2.97299016      -0.22612312       1.96062948       0.00000000
Si      -0.85566483       3.09342213       1.63533744       0.00000000
Si      -3.15677394       1.42094412      -1.39730376       0.00000000
Si       3.29082435      -0.34412462      -1.76089177       0.00000000
Si      -1.30205970       1.42271973       3.29018414       0.00000000
Si      -3.21134544      -1.60142820       1.31021744       0.00000000
