10
Lattice="16.28999089631971 0.0 0.0 0.0 16.28999089631971 0.0 0.0 0.0 34.40785480372833" Properties=species:S:1:pos:R:3:initial_magmoms:R:1 pbc="T T T"
Si      -0.83100503      -1.84098340       1.28481208       0.00000000
Si      -0.52984039      -1.08392031      -2.07066586       0.00000000
Si       2.23414092       0.74674989       0.63483357       0.00000000
Si      -1.77738398       1.76831208       0.16090055       0.00000000
Si      -2.03949890      -0.49075254       2.74620051       0.00000000
Si       0.70952724       2.19665763       2.73968366       0.00000000
Si      -2.66824403      -2.50190291      -0.17929943       0.00000000
Si       3.62419920      -0.12965211      -1.22423216       0.00000000
Si      -0.73677226       3.45426192       1.47542138       0.00000000
Si      -3.49522217       0.73764378       1.42115328       0.00000000
