10
Lattice="16.28999089631971 0.0 0.0 0.0 16.28999089631971 0.0 0.0 0.0 34.40785480372833" Properties=species:S:1:pos:R:3:initial_magmoms:R:1 pbc="T T T"
Si       2.37065112      -0.08068437      -0.01940604       0.00000000
Si      -0.96326028      -1.39937616       1.67762471       0.00000000
Si      -0.65594943       2.23412463       0.55007868       0.00000000
Si      -1.61350821      -0.29175390      -2.47853680       0.00000000
Si       3.01135311       2.01217338      -0.91569675       0.00000000
Si       2.96103330      -0.43486155       2.24910509       0.00000000
Si      -3.05395146      -2.02984803       0.81780635       0.00000000
Si      -2.62050714       2.18733975       1.82131200       0.00000000
Si      -0.75284235      -0.35737002       3.85044755       0.00000000
Si       0.84470166       3.47555295       1.92911187       0.00000000
