10
Lattice="16.28999089631971 0.0 0.0 0.0 16.28999089631971 0.0 0.0 0.0 34.40785480372833" Properties=species:S:1:pos:R:3:initial_magmoms:R:1 pbc="T T T"
Si       2.10022083       0.89998992       0.41998251       0.00000000
Si      -0.03534930      -2.33390088      -0.05178385       0.00000000
Si      -1.03114071       0.60110100       2.02968608       0.00000000
Si      -0.71526132       0.82191195      -2.09261808       0.00000000
Si      -3.15908712       0.95001651       1.18521363       0.00000000
Si       3.18923991       0.30613797      -1.59769522       0.00000000
Si       1.43224938       0.96453090      -3.15420422       0.00000000
Si       0.42267663      -2.86407522       2.18221619       0.00000000
Si       2.58159033       0.00281817       2.56902951       0.00000000
Si      -1.51765785       2.96743527      -1.52812250       0.00000000
