10
Lattice="16.28999089631971 0.0 0.0 0.0 16.28999089631971 0.0 0.0 0.0 34.40785480372833" Properties=species:S:1:pos:R:3:initial_magmoms:R:1 pbc="T T T"
Si      -1.27259109       1.35601218      -1.41502382       0.00000000
Si       1.07696448       1.88185338       1.04162957       0.00000000
Si       1.46528550      -1.36573731      -1.38856416       0.00000000
Si      -1.33271748      -1.29862251       1.62828382       0.00000000
Si       0.00806355      -0.07094295       3.26802547       0.00000000
Si       2.32181370       0.69338385       2.64135486       0.00000000
Si      -0.90363888       3.35588661       1.19192316       0.00000000
Si      -2.60113833      -2.69625564       0.02074795       0.00000000
Si      -2.59646310      -0.00260640      -2.77416925       0.00000000
Si      -2.78303247       2.59862967      -0.02449841       0.00000000
