10
Lattice="16.28999089631971 0.0 0.0 0.0 16.28999089631971 0.0 0.0 0.0 34.40785480372833" Properties=species:S:1:pos:R:3:initial_magmoms:R:1 pbc="T T T"
Si      -0.80239653       2.14552332       0.56449558       0.00000000
Si       0.71526132      -0.82191195       2.09261808       0.00000000
Si      -1.50065109      -1.24142832      -1.37903318       0.00000000
Si       2.14751070       0.14261895      -1.06158614       0.00000000
Si      -3.46520880      -1.28821320      -0.10779987       0.00000000
Si       2.81548215       0.07807797       2.51260059       0.00000000
Si       2.14979130       2.33311896      -2.05673067       0.00000000
Si       1.09866276       3.37022181       1.32084947       0.00000000
Si       0.67991202      -3.15581283       2.04083423       0.00000000
Si      -2.86244622       1.90231362       1.69988661       0.00000000
