10
Lattice="16.28999089631971 0.0 0.0 0.0 16.28999089631971 0.0 0.0 0.0 34.40785480372833" Properties=species:S:1:pos:R:3:initial_magmoms:R:1 pbc="T T T"
Si       1.35568638       1.35153243       1.38932114       0.00000000
Si      -1.36277253      -1.36218609       1.38457285       0.00000000
Si       1.52102988      -1.20127347      -1.43957384       0.00000000
Si      -1.35439947       1.37430585      -1.48716681       0.00000000
Si       0.05528826      -2.36892438      -2.89564423       0.00000000
Si      -2.69418681       2.70024016       0.02674180       0.00000000
Si       2.72572425       2.68771970       0.02277457       0.00000000
Si      -2.72192868      -2.71542897       0.00978560       0.00000000
Si       2.72526813      -2.72637585      -0.01458206       0.00000000
Si       2.70987408      -0.00588069       2.74643651       0.00000000
