10
Lattice="16.28999089631971 0.0 0.0 0.0 16.28999089631971 0.0 0.0 0.0 34.40785480372833" Properties=species:S:1:pos:R:3:initial_magmoms:R:1 pbc="T T T"
Si      -1.35094599      -1.34804637      -1.38825449       0.00000000
Si       1.36519974       1.36666364      -1.38859857       0.00000000
Si       1.28829465      -1.39435884       1.47874720       0.00000000
Si      -1.15167042       1.42527402       1.59772963       0.00000000
Si       2.45939904       0.30090888       2.85265361       0.00000000
Si       2.71430496      -2.67771762      -0.02652847       0.00000000
Si      -2.67880905       2.72539749      -0.01235243       0.00000000
Si      -2.72508894      -2.67977016      -0.01039118       0.00000000
Si       2.72893338       2.71668071      -0.01159545       0.00000000
Si      -2.70760977       0.00759114      -2.74843216       0.00000000
