10
Lattice="16.28999089631971 0.0 0.0 0.0 16.28999089631971 0.0 0.0 0.0 34.40785480372833" Properties=species:S:1:pos:R:3:initial_magmoms:R:1 pbc="T T T"
Si      -2.25833157       0.69452415      -0.36090419       0.00000000
Si       0.34202484      -2.48189553       0.08636376       0.00000000
Si       0.68782896       2.30046633      -0.77070197       0.00000000
Si       0.36948978       0.06701706       2.57240148       0.00000000
Si       2.57543271       0.56338965       1.50510363       0.00000000
Si      -0.78120324      -1.60492338      -2.51149954       0.00000000
Si      -1.70706168      -1.29334455       2.57814759       0.00000000
Si      -3.21970221      -1.15888689       0.71478918       0.00000000
Si      -0.36483084       3.37482278       1.01427531       0.00000000
Si       2.90434410       2.33154439      -0.09369264       0.00000000
