10
Lattice="16.28999089631971 0.0 0.0 0.0 16.28999089631971 0.0 0.0 0.0 34.40785480372833" Properties=species:S:1:pos:R:3:initial_magmoms:R:1 pbc="T T T"
Si       0.96137064       1.85341104      -1.07569337       0.00000000
Si      -2.24466426      -0.00687438       0.78443071       0.00000000
Si      -0.03301983      -2.03380650      -1.25571536       0.00000000
Si       1.51264053      -0.13445766       1.86335842       0.00000000
Si       3.21970221       1.15888689      -0.71478918       0.00000000
Si       0.55618947      -3.41464464       0.55389796       0.00000000
Si       2.45724876      -2.18994615       1.31025184       0.00000000
Si      -2.59463862       2.20204964       1.58561806       0.00000000
Si      -2.16235089      -2.01376980      -2.32459597       0.00000000
Si      -3.59562654      -0.56628927      -1.11230334       0.00000000
