10
Lattice="16.28999089631971 0.0 0.0 0.0 16.28999089631971 0.0 0.0 0.0 34.40785480372833" Properties=species:S:1:pos:R:3:initial_magmoms:R:1 pbc="T T T"
Si       0.00050499       2.35145077       0.37841780       0.00000000
Si      -2.07655146      -1.36036161       0.00574611       0.00000000
Si       2.20594293       0.49637259      -1.06729784       0.00000000
Si       0.63153072      -0.83082258       2.30529315       0.00000000
Si      -0.36948978      -0.06701706      -2.57240148       0.00000000
Si      -1.12576932       2.09828788       2.38804409       0.00000000
Si      -0.02746494      -2.54891259      -2.48603771       0.00000000
Si       3.50259435       0.28272924       0.93740812       0.00000000
Si      -1.13194323      -3.41585010      -0.54736046       0.00000000
Si      -0.73432062       3.30780572      -1.55812617       0.00000000
