10
Lattice="16.28999089631971 0.0 0.0 0.0 16.28999089631971 0.0 0.0 0.0 34.40785480372833" Properties=species:S:1:pos:R:3:initial_magmoms:R:1 pbc="T T T"
Si      -1.11439890       0.99511279      -1.85055869       0.00000000
Si      -1.49190336      -1.67391153       0.85145725       0.00000000
Si       2.28747438      -0.46116990      -0.61029246       0.00000000
Si      -0.28238715       1.61092366       1.91328424       0.00000000
Si       3.18839283      -1.40227578       1.35133484       0.00000000
Si      -3.25523070      -0.33080103       2.05456297       0.00000000
Si       0.35556183       0.75991907      -3.78631127       0.00000000
Si      -2.83612158      -0.44696502      -2.64345374       0.00000000
Si       3.47195286       1.68442902      -0.64704007       0.00000000
Si       0.27948753       3.77360198       1.02022787       0.00000000
