10
Lattice="16.28999089631971 0.0 0.0 0.0 16.28999089631971 0.0 0.0 0.0 34.40785480372833" Properties=species:S:1:pos:R:3:initial_magmoms:R:1 pbc="T T T"
Si      -1.42886106       1.30232588      -1.32369844       0.00000000
Si      -1.37003787      -1.33618727       1.36654657       0.00000000
Si       1.34495127       1.37912345       1.36823255       0.00000000
Si       1.49511249      -1.20710531      -1.52910313       0.00000000
Si       0.22499748       2.35472667      -2.63135352       0.00000000
Si       2.06311221       0.72292153      -2.89973532       0.00000000
Si       2.70832653      -2.69128721      -0.02642181       0.00000000
Si      -2.72572425      -2.68771970      -0.02277457       0.00000000
Si      -0.01585017      -2.69360039       2.72366193       0.00000000
Si       2.69930376       0.02142031       2.72335226       0.00000000
