10
Lattice="16.28999089631971 0.0 0.0 0.0 16.28999089631971 0.0 0.0 0.0 34.40785480372833" Properties=species:S:1:pos:R:3:initial_magmoms:R:1 pbc="T T T"
Si       2.21651514       0.03107806       0.67700933       0.00000000
Si      -1.05265980       1.07435645       1.78497728       0.00000000
Si      -0.01782126       1.81898864      -1.59256845       0.00000000
Si      -0.68782896      -2.30046633       0.77070197       0.00000000
Si      -2.94616053      -1.60594218       0.40979778       0.00000000
Si       1.88760375      -1.73707668       2.27580560       0.00000000
Si      -0.31783419       0.11800150       3.72152125       0.00000000
Si       3.48045624      -0.67028300      -1.20551427       0.00000000
Si      -3.29082435       0.34412462       1.76089177       0.00000000
Si      -0.43261353       3.36005522       1.79488675       0.00000000
