10
Lattice="16.28999089631971 0.0 0.0 0.0 16.28999089631971 0.0 0.0 0.0 34.40785480372833" Properties=species:S:1:pos:R:3:initial_magmoms:R:1 pbc="T T T"
Si      -1.35935163       1.35475785       1.36055615       0.00000000
Si       1.35596612      -1.36088289       1.36148517       0.00000000
Si       1.33617096       1.36801791      -1.38156216       0.00000000
Si      -1.37481084      -1.35620766      -1.37191764       0.00000000
Si       2.64984447      -0.13136256      -2.60829233       0.00000000
Si      -2.71542897       2.71000440      -0.00233974       0.00000000
Si       2.71570168       2.71288773       0.00055053       0.00000000
Si      -0.00099369       2.71303434       2.71712100       0.00000000
Si      -2.71634121      -2.71508688       0.00144513       0.00000000
Si       2.71416879      -0.00208512       2.71739626       0.00000000
