10
Lattice="16.28999089631971 0.0 0.0 0.0 16.28999089631971 0.0 0.0 0.0 34.40785480372833" Properties=species:S:1:pos:R:3:initial_magmoms:R:1 pbc="T T T"
Si       1.35749738       1.35637056      -1.35663366       0.00000000
Si       1.35770782      -1.35716877       1.35687451       0.00000000
Si      -1.35676152       1.35863487       1.35684010       0.00000000
Si      -1.35664749      -1.35816246      -1.35756267       0.00000000
Si       0.00131949       2.71321353       2.71213185       0.00000000
Si       0.00234576      -2.71158779       2.71495330       0.00000000
Si       0.00174303      -2.71407201      -2.71316409       0.00000000
Si      -2.71454931      -2.71450858       0.00017204       0.00000000
Si       2.71521461      -2.71472850      -0.00030967       0.00000000
Si      -2.71494027       2.71562445      -0.00058493       0.00000000
