10
Lattice="16.28999089631971 0.0 0.0 0.0 16.28999089631971 0.0 0.0 0.0 34.40785480372833" Properties=species:S:1:pos:R:3:initial_magmoms:R:1 pbc="T T T"
Si      -0.72438372      -1.90772190       1.27061397       0.00000000
Si      -1.39391901       1.32685308      -1.44588768       0.00000000
Si       1.34863281      -1.36844145      -1.45879064       0.00000000
Si       0.90482805       1.69370388       1.47331076       0.00000000
Si      -2.56064139      -2.58869277      -0.07273825       0.00000000
Si       3.05088635      -2.36828907      -0.11444059       0.00000000
Si       0.76447341       0.89093268       3.69808949       0.00000000
Si      -0.02407662       2.68592778      -2.82450797       0.00000000
Si       2.68051421      -0.02034621      -2.83011645       0.00000000
Si       1.20723561      -3.55842018       1.05659700       0.00000000
