10
Lattice="16.28999089631971 0.0 0.0 0.0 16.28999089631971 0.0 0.0 0.0 34.40785480372833" Properties=species:S:1:pos:R:3:initial_magmoms:R:1 pbc="T T T"
Si       2.17092499       0.32977476       0.80865386       0.00000000
Si       0.14035464       0.80277120      -2.22477873       0.00000000
Si       0.14193477      -2.42007498       0.19767324       0.00000000
Si      -2.37511458       0.81230085       1.27333219       0.00000000
Si      -1.30186422       2.49504156      -1.11405815       0.00000000
Si       2.07939571      -1.84360446       1.79244379       0.00000000
Si      -0.76447341      -0.89093268      -3.69808949       0.00000000
Si      -2.01064212      -3.17580066       1.05067884       0.00000000
Si      -3.01581657      -1.28055690       2.16962290       0.00000000
Si      -1.48885713      -2.79865458      -2.42747551       0.00000000
