10
Lattice="16.28999089631971 0.0 0.0 0.0 16.28999089631971 0.0 0.0 0.0 34.40785480372833" Properties=species:S:1:pos:R:3:initial_magmoms:R:1 pbc="T T T"
Si       1.77506496      -0.60668847       1.48216291       0.00000000
Si       1.66818073       0.38048553      -1.68010208       0.00000000
Si      -1.07706222       2.11967109       0.97064613       0.00000000
Si      -1.27555587      -2.13201891      -0.67232986       0.00000000
Si       0.05722677      -1.63735677       2.74241564       0.00000000
Si       0.13664052       1.20135492      -3.31306537       0.00000000
Si      -0.95390982      -3.24509832       1.41034473       0.00000000
Si      -2.60278362       1.14670197       2.52270416       0.00000000
Si       2.42195063      -1.82452887      -2.40689960       0.00000000
Si      -2.63112822       2.84480415      -0.82892009       0.00000000
