10
Lattice="16.28999089631971 0.0 0.0 0.0 16.28999089631971 0.0 0.0 0.0 34.40785480372833" Properties=species:S:1:pos:R:3:initial_magmoms:R:1 pbc="T T T"
Si      -1.52572140      -0.97296912       1.55205803       0.00000000
Si      -1.55406600       0.72513306      -1.79956622       0.00000000
Si       1.25090910       1.72439424       1.34492263       0.00000000
Si       1.07706222      -2.11967109      -0.97064613       0.00000000
Si      -2.96855928      -2.17269504      -0.11777815       0.00000000
Si      -0.13191642      -2.26525482       3.06241231       0.00000000
Si       2.85212718      -2.72635956       0.51151679       0.00000000
Si       2.57906538       0.45897075       3.05276778       0.00000000
Si      -0.31873014       0.90515385      -3.94500039       0.00000000
Si       2.95977312       2.81724147       0.00880842       0.00000000
