10
Lattice="16.28999089631971 0.0 0.0 0.0 16.28999089631971 0.0 0.0 0.0 34.40785480372833" Properties=species:S:1:pos:R:3:initial_magmoms:R:1 pbc="T T T"
Si      -1.35667681      -1.35852084       1.35604872       0.00000000
Si       1.35832536       1.35694071       1.35601432       0.00000000
Si      -1.35514392       1.35645201      -1.36079701       0.00000000
Si       1.35700587      -1.36155078      -1.36554530       0.00000000
Si      -0.01000206       2.71088406      -2.71325011       0.00000000
Si      -2.71230848       2.71508688      -0.00072257       0.00000000
Si       0.00074934       2.71458189       2.71395547       0.00000000
Si       0.00057015      -2.71564074       2.71350817       0.00000000
Si      -2.71559022      -0.00065160       2.71381784       0.00000000
Si       2.71546155      -0.00061902       2.71402429       0.00000000
