10
Lattice="16.28999089631971 0.0 0.0 0.0 16.28999089631971 0.0 0.0 0.0 34.40785480372833" Properties=species:S:1:pos:R:3:initial_magmoms:R:1 pbc="T T T"
Si       1.34478837       1.35975888       1.39795063       0.00000000
Si      -1.37023335      -1.35544203       1.39829471       0.00000000
Si      -1.20423825       1.52510238      -1.42499178       0.00000000
Si       1.35321030      -1.43200503      -1.68877287       0.00000000
Si       2.68136658      -2.69742852       0.01907228       0.00000000
Si      -2.72813517      -2.69931816       0.00956195       0.00000000
Si       2.70878265       2.72280834       0.01093482       0.00000000
Si      -2.72526813       2.72637585       0.01458206       0.00000000
Si       2.70373275       0.00607617       2.76125942       0.00000000
Si      -0.01415601      -2.71068858       2.76119060       0.00000000
