10
Lattice="16.28999089631971 0.0 0.0 0.0 16.28999089631971 0.0 0.0 0.0 34.40785480372833" Properties=species:S:1:pos:R:3:initial_magmoms:R:1 pbc="T T T"
Si       1.40098887      -1.34402274       1.26961614       0.00000000
Si       1.36246302       1.32770016      -1.36317115       0.00000000
Si      -1.34796492      -1.38719124      -1.35962714       0.00000000
Si      -1.42601031       1.28335878       1.50527567       0.00000000
Si      -0.39092742      -2.21509791       2.44688155       0.00000000
Si      -2.37153078      -0.74106468       2.59717515       0.00000000
Si      -2.71430496       2.67771762       0.02652847       0.00000000
Si       2.71668330       2.69063559       0.00237414       0.00000000
Si       0.00952965       2.68578117      -2.72235099       0.00000000
Si      -2.70620883      -0.02969667      -2.72211014       0.00000000
