10
Lattice="16.28999089631971 0.0 0.0 0.0 16.28999089631971 0.0 0.0 0.0 34.40785480372833" Properties=species:S:1:pos:R:3:initial_magmoms:R:1 pbc="T T T"
Si      -1.24484922       1.18846953      -1.59972529       0.00000000
Si       1.44221886      -1.69227036      -1.11072058       0.00000000
Si      -2.31375015      -0.76432680       0.62667061       0.00000000
Si       0.74836260       1.82597868       1.75655638       0.00000000
Si       1.30186422      -2.49504156       1.11405815       0.00000000
Si      -1.07325036      -1.68274071       2.38739034       0.00000000
Si       0.54706707       2.05954470      -2.77699070       0.00000000
Si      -2.32181370      -0.69338385      -2.64135486       0.00000000
Si      -1.09011051       2.11375782       3.17546829       0.00000000
Si       3.18422259      -0.52282755      -2.36671121       0.00000000
