10
Lattice="16.28999089631971 0.0 0.0 0.0 16.28999089631971 0.0 0.0 0.0 34.40785480372833" Properties=species:S:1:pos:R:3:initial_magmoms:R:1 pbc="T T T"
Si      -1.79191629      -0.87107517       1.17726541       0.00000000
Si       1.32737436      -1.41275025      -1.26720759       0.00000000
Si      -1.40098887       1.34402274      -1.26961614       0.00000000
Si       1.74470787       1.00932840       1.27914713       0.00000000
Si      -0.54706707      -2.05954470       2.77699070       0.00000000
Si       2.63715552      -2.58237225       0.41027949       0.00000000
Si      -0.03852585       2.67172290      -2.63278730       0.00000000
Si       2.67765246      -0.04277754      -2.63419802       0.00000000
Si       0.84939318       1.66161258       3.27810697       0.00000000
Si      -2.74895379      -0.04316850      -2.62924329       0.00000000
