10
Lattice="16.28999089631971 0.0 0.0 0.0 16.28999089631971 0.0 0.0 0.0 34.40785480372833" Properties=species:S:1:pos:R:3:initial_magmoms:R:1 pbc="T T T"
Si      -0.39931677       0.56883051      -2.18717092       0.00000000
Si       0.23965848       1.68503760       1.61569054       0.00000000
Si      -2.07655146      -0.92839968       0.62746199       0.00000000
Si       1.83266314      -1.41358104      -0.46966748       0.00000000
Si       2.06626337      -2.54946645       1.53627717       0.00000000
Si       1.04334192      -2.67325416      -2.35356740       0.00000000
Si       0.67636080       2.45636910      -2.78868937       0.00000000
Si      -3.72291660       0.02002041      -0.82568575       0.00000000
Si       1.29674916       0.70024194       3.51861801       0.00000000
Si      -1.95944265       2.60504793       2.02696786       0.00000000
