10
Lattice="16.28999089631971 0.0 0.0 0.0 16.28999089631971 0.0 0.0 0.0 34.40785480372833" Properties=species:S:1:pos:R:3:initial_magmoms:R:1 pbc="T T T"
Si      -1.46574162      -1.16765091      -1.45607039       0.00000000
Si       1.20423825      -1.52510238       1.42499178       0.00000000
Si      -1.52102988       1.20127347       1.43957384       0.00000000
Si       1.39659057       1.32225930      -1.60732740       0.00000000
Si      -1.95514209       0.44020467      -3.21042466       0.00000000
Si       2.69980686       2.68188786      -0.06675472       0.00000000
Si       2.54902662      -0.16534350       2.82294241       0.00000000
Si      -0.16534350       2.55280590       2.82889498       0.00000000
Si      -2.87542935       2.57557932      -0.04759297       0.00000000
Si      -2.82716208      -2.70453096      -0.05637042       0.00000000
