10
Lattice="16.28999089631971 0.0 0.0 0.0 16.28999089631971 0.0 0.0 0.0 34.40785480372833" Properties=species:S:1:pos:R:3:initial_magmoms:R:1 pbc="T T T"
Si       1.29010284      -1.36150191      -1.47898806       0.00000000
Si      -1.68148638      -1.07351100       1.39781988       0.00000000
Si      -1.41195204       1.34226083      -1.46642918       0.00000000
Si       1.17196776       1.88989154       1.03781030       0.00000000
Si       2.76097713      -2.62949922      -0.18497673       0.00000000
Si      -0.75965157       3.54058982       1.25182727       0.00000000
Si      -2.59590924       2.85961895      -0.09152494       0.00000000
Si       2.65008175      -0.00740841      -2.84102375       0.00000000
Si      -0.06203232       2.70215981      -2.84257211       0.00000000
Si      -0.06411744      -2.72443734      -2.84453335       0.00000000
