10
Lattice="16.28999089631971 0.0 0.0 0.0 16.28999089631971 0.0 0.0 0.0 34.40785480372833" Properties=species:S:1:pos:R:3:initial_magmoms:R:1 pbc="T T T"
Si       0.67196250       2.03356215      -0.95660771       0.00000000
Si      -0.23965848      -1.68503760      -1.61569054       0.00000000
Si       1.05709068      -0.98479566       1.90292747       0.00000000
Si      -2.19910113       0.92001033       0.41127732       0.00000000
Si       1.04366772       1.15872399       2.95477618       0.00000000
Si      -0.60724233      -2.57911425       2.31379190       0.00000000
Si      -2.31620994      -2.61343728      -0.98822855       0.00000000
Si      -2.74266585      -2.18289258       1.30312941       0.00000000
Si      -0.62468892       2.24720550      -2.96131368       0.00000000
Si       0.07802910       3.74297026       0.58035761       0.00000000
