10
Lattice="16.28999089631971 0.0 0.0 0.0 16.28999089631971 0.0 0.0 0.0 34.40785480372833" Properties=species:S:1:pos:R:3:initial_magmoms:R:1 pbc="T T T"
Si       1.91169666      -0.32672853      -1.36774740       0.00000000
Si      -2.00478912       0.45929655      -1.19952730       0.00000000
Si       0.31250736       2.30257521       0.55135177       0.00000000
Si      -0.11137473      -1.65809394       1.77678821       0.00000000
Si      -1.09100646       1.74755862       3.23103700       0.00000000
Si      -3.24798714       2.03862834       0.17128240       0.00000000
Si       2.05099245       2.46669696       2.14374818       0.00000000
Si       1.91231568      -1.29207393       3.10045912       0.00000000
Si       1.52611236       0.51779394      -3.51576216       0.00000000
Si       1.06908012       3.51872145      -1.35078432       0.00000000
