10
Lattice="16.28999089631971 0.0 0.0 0.0 16.28999089631971 0.0 0.0 0.0 34.40785480372833" Properties=species:S:1:pos:R:3:initial_magmoms:R:1 pbc="T T T"
Si      -1.30401450       1.27819485      -1.53173533       0.00000000
Si       1.28169720       1.52350596       1.45965083       0.00000000
Si      -1.83348348      -0.75807144       1.50128436       0.00000000
Si       1.38085443      -1.43614269      -1.50138758       0.00000000
Si      -2.57151268       2.73170268      -0.22836506       0.00000000
Si       2.63984337      -0.00050499       2.67996049       0.00000000
Si      -2.72092589      -2.61733059       0.15514510       0.00000000
Si      -3.61337354       0.97437006       1.02401274       0.00000000
Si       0.03829779       2.63350656      -2.89174096       0.00000000
Si       2.62821231      -2.92120425      -0.12988972       0.00000000
