10
Lattice="16.28999089631971 0.0 0.0 0.0 16.28999089631971 0.0 0.0 0.0 34.40785480372833" Properties=species:S:1:pos:R:3:initial_magmoms:R:1 pbc="T T T"
Si       1.88435878      -0.83191401       1.00956143       0.00000000
Si      -0.37769017       2.01311820       1.36440984       0.00000000
Si      -0.67751576       0.22617036      -2.49364185       0.00000000
Si      -0.64990747      -1.60544466       1.96448316       0.00000000
Si      -2.48628798       1.21621140       2.17261639       0.00000000
Si      -1.27639155      -3.27552804       0.44964210       0.00000000
Si      -1.11095356       3.56783580      -0.25282906       0.00000000
Si       0.95600797      -3.35337795      -2.03698055       0.00000000
Si      -4.00081815       0.71571744       0.28348647       0.00000000
Si       3.79581109       0.98373681      -1.31496572       0.00000000
