10
Lattice="16.28999089631971 0.0 0.0 0.0 16.28999089631971 0.0 0.0 0.0 34.40785480372833" Properties=species:S:1:pos:R:3:initial_magmoms:R:1 pbc="T T T"
Si       1.67434973      -0.65249595       1.49337055       0.00000000
Si      -0.62648408      -1.67008338      -1.51484106       0.00000000
Si      -1.47425382       0.95276952       1.58761372       0.00000000
Si       0.64990747       1.60544466      -1.96448316       0.00000000
Si       2.53426625       0.77353065      -0.95492173       0.00000000
Si      -1.83638052       2.82165606       0.20813323       0.00000000
Si       0.27221730       3.61856286      -0.60007332       0.00000000
Si       0.54982008      -2.09359080       2.99888708       0.00000000
Si      -0.71801335      -3.84346260      -0.53105113       0.00000000
Si       2.65603400       1.05057468       2.80107621       0.00000000
