10
Lattice="16.28999089631971 0.0 0.0 0.0 16.28999089631971 0.0 0.0 0.0 34.40785480372833" Properties=species:S:1:pos:R:3:initial_magmoms:R:1 pbc="T T T"
Si       1.08805797      -2.05208388      -0.10611388       0.00000000
Si      -2.17137392      -0.85296069       0.21759540       0.00000000
Si       0.63102573       0.94884363       2.05886396       0.00000000
Si      -0.17311383       1.13062374      -2.09839861       0.00000000
Si      -3.28048020       1.15660629       0.57798347       0.00000000
Si      -2.27932775      -2.01354174      -1.90058774       0.00000000
Si      -1.15479810      -0.57244689      -3.40610427       0.00000000
Si      -0.44510796      -3.37831794      -1.31685815       0.00000000
Si       3.15511236      -1.55921364      -1.00770341       0.00000000
Si       3.67784217       0.48397590       0.17300279       0.00000000
