10
Lattice="16.28999089631971 0.0 0.0 0.0 16.28999089631971 0.0 0.0 0.0 34.40785480372833" Properties=species:S:1:pos:R:3:initial_magmoms:R:1 pbc="T T T"
Si       1.18310035      -0.98056026       1.68681162       0.00000000
Si       1.42350817       1.29555838      -1.31155934       0.00000000
Si      -1.30253146      -1.41278283      -1.33688354       0.00000000
Si      -0.99794006      -1.56089151       2.63357868       0.00000000
Si       2.55067843      -2.62097955       0.35113235       0.00000000
Si      -0.04557128       2.58478221      -2.62993144       0.00000000
Si       2.67133846      -0.15775236      -2.63856782       0.00000000
Si       1.91891965       1.00545138       3.07399947       0.00000000
Si      -2.77340575      -0.14478552      -2.63089486       0.00000000
Si      -0.03503327      -2.86629066      -2.64025381       0.00000000
