10
Lattice="16.290000149 0.0 0.0 0.0 16.290000149 0.0 0.0 0.0 29.1751946751" Properties=species:S:1:pos:R:3:initial_magmoms:R:1 pbc="T T T"
Si      -1.39865941       1.42687369      -1.21993159       0.00000000
Si      -1.32900337      -1.38069154       1.37503860       0.00000000
Si       1.19723356      -1.47448936      -1.43116000       0.00000000
Si       1.30710961       1.44917470       1.36782357       0.00000000
H        3.22302540       1.73835479      -0.51949352       0.00000000
Si      -0.01829367       2.65409714      -2.66325765       0.00000000
Si       2.66823686      -2.68337027       0.02497397       0.00000000
Si       2.52912026      -0.14563260      -2.83221120       0.00000000
Si      -2.90278029       0.14066415      -2.50215222       0.00000000
Si       2.73245205       0.08153145       2.70453471       0.00000000
