10
Lattice="16.290000149 0.0 0.0 0.0 16.290000149 0.0 0.0 0.0 29.1751946751" Properties=species:S:1:pos:R:3:initial_magmoms:R:1 pbc="T T T"
Si       1.03527838       1.10617246      -0.21545881       0.00000000
H       -0.52160580       1.54895095       1.81020413       0.00000000
Si      -2.21469068      -0.78270193      -1.12330335       0.00000000
Si      -0.96656716       0.26283915       2.47426073       0.00000000
Si       1.04428675      -1.10439685       2.39799678       0.00000000
Si      -0.53719533      -2.46172853      -1.37444342       0.00000000
Si      -0.17811486      -2.70042590       0.98670508       0.00000000
Si       2.21274240       0.94892509       1.79727952       0.00000000
Si       2.52555927       0.03637557      -1.64285521       0.00000000
Si      -0.22408524       2.74820448      -1.37295549       0.00000000
