10
Lattice="16.290000149 0.0 0.0 0.0 16.290000149 0.0 0.0 0.0 29.1751946751" Properties=species:S:1:pos:R:3:initial_magmoms:R:1 pbc="T T T"
Si       1.34317567       1.37849239      -1.31372984       0.00000000
Si      -1.36479250       1.37052658       1.34308009       0.00000000
Si       1.54624681      -1.32473539       1.18334590       0.00000000
Si      -1.40906872      -1.32515893      -1.35571295       0.00000000
Si       2.64749969       0.03205872      -2.74453974       0.00000000
Si      -0.05779692       2.71971326      -2.67303134       0.00000000
Si       2.62878248      -2.74538631      -0.31377922       0.00000000
Si       2.57289149       2.81321461       0.11063234       0.00000000
Si      -2.71274114       0.08097759       2.71338063       0.00000000
Si      -2.78454747      -2.64583811       0.00743967       0.00000000
