10
Lattice="16.290000149 0.0 0.0 0.0 16.290000149 0.0 0.0 0.0 29.1751946751" Properties=species:S:1:pos:R:3:initial_magmoms:R:1 pbc="T T T"
H       -0.89959897       0.75395008       0.96992935       0.00000000
Si       1.15453747       1.63590698      -1.18810145       0.00000000
Si       1.39923054      -1.16466985       1.46809580       0.00000000
Si      -1.59350410      -1.13003731      -1.34278833       0.00000000
Si      -0.61683715       2.77294899      -2.22595065       0.00000000
Si      -1.98814565       2.45938277       1.75638465       0.00000000
Si       2.62490709       0.43238547      -2.52832237       0.00000000
Si      -0.06064767      -2.34545051       2.88169233       0.00000000
Si      -2.23645412       2.96587146      -0.54901881       0.00000000
Si       2.86208461      -2.43962300       0.12297345       0.00000000
