10
Lattice="16.290000149 0.0 0.0 0.0 16.290000149 0.0 0.0 0.0 29.1751946751" Properties=species:S:1:pos:R:3:initial_magmoms:R:1 pbc="T T T"
Si      -1.46180108      -1.38215764       1.21829778       0.00000000
Si       1.33856560      -1.33095817      -1.40744057       0.00000000
Si      -1.34818322       1.35322660      -1.38404206       0.00000000
Si       1.41037192       1.39585753       1.29850039       0.00000000
Si      -0.11712510       2.65597049       2.51656477       0.00000000
Si      -0.04365720      -2.60307686       2.59773016       0.00000000
Si       2.75832057       2.68540652      -0.07180015       0.00000000
Si      -2.80311807      -0.08180838       2.64125955       0.00000000
Si      -0.01151703       2.70322778      -2.75451765       0.00000000
Si       2.75817396      -2.70368390      -0.15492028       0.00000000
