10
Lattice="16.290000149 0.0 0.0 0.0 16.290000149 0.0 0.0 0.0 29.1751946751" Properties=species:S:1:pos:R:3:initial_magmoms:R:1 pbc="T T T"
Si      -1.33666619      -1.35000118       1.37047559       0.00000000
Si       1.35140212      -1.36146934      -1.36052685       0.00000000
Si      -1.40593941       1.33809156      -1.33278124       0.00000000
Si       1.34379469       1.34676599       1.38760143       0.00000000
Si       2.65183283       2.69382845      -0.03506858       0.00000000
Si      -2.71494072       0.04537547       2.66990959       0.00000000
Si      -0.05906754       2.69239493      -2.70847920       0.00000000
Si       2.71445159      -0.01110978      -2.71014218       0.00000000
Si      -2.71601628      -2.71016732       0.01374152       0.00000000
Si      -0.07477110       2.70089831       2.72493401       0.00000000
