10
Lattice="16.290000149 0.0 0.0 0.0 16.290000149 0.0 0.0 0.0 29.1751946751" Properties=species:S:1:pos:R:3:initial_magmoms:R:1 pbc="T T T"
Si       1.42043751       1.38930895      -1.24816151       0.00000000
Si       1.36633842      -1.34741107       1.37155508       0.00000000
Si      -1.28082032       1.34514676       1.45616314       0.00000000
Si      -1.39323647      -1.29585322      -1.42463643       0.00000000
Si      -2.69615955      -2.64622907       0.00460968       0.00000000
Si      -2.59755618       2.78028437       0.18047775       0.00000000
Si       0.14888571       2.77379281      -2.62391490       0.00000000
Si       2.73417716       0.07607430      -2.68429880       0.00000000
Si       2.71734959      -2.71590140       0.01155338       0.00000000
Si       0.02039671      -2.69571809       2.74004676       0.00000000
