10
Lattice="16.290000149 0.0 0.0 0.0 16.290000149 0.0 0.0 0.0 29.1751946751" Properties=species:S:1:pos:R:3:initial_magmoms:R:1 pbc="T T T"
Si      -0.84952351       1.24115140      -1.70643380       0.00000000
Si      -1.83115892      -1.01999836       0.94625951       0.00000000
Si       1.03480597       1.85457091       0.95627536       0.00000000
Si       1.74117296      -1.54403137      -0.46230722       0.00000000
H       -1.01537200       2.63397899      -1.10577489       0.00000000
Si      -0.42440337      -2.38558907       2.19734729       0.00000000
Si       1.49286448      -1.03754269      -2.76771068       0.00000000
Si       2.44775171       0.51403633       2.21941541       0.00000000
Si       1.03158055       1.24471402      -3.05616583       0.00000000
Si       0.99253342      -0.92618425       3.42825459       0.00000000
