10
Lattice="16.290000149 0.0 0.0 0.0 16.290000149 0.0 0.0 0.0 29.1751946751" Properties=species:S:1:pos:R:3:initial_magmoms:R:1 pbc="T T T"
Si       1.42579855      -1.36101322      -1.26812901       0.00000000
Si       1.35716878       1.34732962       1.35629645       0.00000000
Si      -1.32346477      -1.38774511       1.38232072       0.00000000
Si      -1.34008057       1.33672483      -1.42132796       0.00000000
Si       0.04355946      -2.70904331      -2.54849410       0.00000000
Si      -2.68596038       2.61599483       0.03865713       0.00000000
Si       2.69762402       2.70053993      -0.02751221       0.00000000
Si       2.70366761      -0.03161889       2.71072569       0.00000000
Si       0.01376505       2.67957470       2.74203067       0.00000000
Si      -2.71153568      -0.06895557      -2.73286966       0.00000000
