10
Lattice="16.290000149 0.0 0.0 0.0 16.290000149 0.0 0.0 0.0 29.1751946751" Properties=species:S:1:pos:R:3:initial_magmoms:R:1 pbc="T T T"
Si      -1.31487994       0.45779787      -0.60246777       0.00000000
H        0.56799973      -0.13053177      -2.32890991       0.00000000
Si       1.75290176      -0.64164682      -1.52799247       0.00000000
Si       1.06217317      -2.50196483      -0.10628523       0.00000000
Si      -2.57435759       0.70514524       1.33456093       0.00000000
Si      -2.28478655      -1.53927469      -1.47810289       0.00000000
Si       0.42937182      -2.16673292       2.22204118       0.00000000
Si      -1.35723394      -0.62289703       2.85149600       0.00000000
Si       3.05277861       1.02894157      -0.35593737       0.00000000
Si      -1.04780539       2.48516984      -1.80451497       0.00000000
