10
Lattice="16.290000149 0.0 0.0 0.0 16.290000149 0.0 0.0 0.0 29.1751946751" Properties=species:S:1:pos:R:3:initial_magmoms:R:1 pbc="T T T"
Si       0.87009778      -1.42042285       1.59906324       0.00000000
Si      -2.23304951       0.50722173      -0.30794418       0.00000000
Si       0.55715059      -1.03749382      -2.00363567       0.00000000
Si       1.24646194       1.78720035      -0.82793367       0.00000000
H       -0.11725542      -1.47817090       2.75437178       0.00000000
Si       0.60334903       1.11213297      -2.97371089       0.00000000
Si       2.76105729      -0.09145206       2.00827453       0.00000000
Si       3.29561364       1.16602518       0.07705169       0.00000000
Si      -1.06552891      -2.72334593      -2.05944782       0.00000000
Si       1.15383700       1.44346017       3.08195086       0.00000000
