10
Lattice="16.290000149 0.0 0.0 0.0 16.290000149 0.0 0.0 0.0 29.1751946751" Properties=species:S:1:pos:R:3:initial_magmoms:R:1 pbc="T T T"
Si       0.84367540      -1.87281245      -1.11166244       0.00000000
Si       1.48390498       1.25604046       1.36863756       0.00000000
Si      -1.36998901       1.31044906      -1.44236327       0.00000000
Si      -1.33105591      -1.35058762       1.48093288       0.00000000
H        1.36576990      -1.60604740      -2.49803852       0.00000000
H        2.56282427       0.16317693      -2.16567470       0.00000000
Si      -0.00128691       2.55711870       2.70007674       0.00000000
Si      -2.77570200       2.50726560       0.00440545       0.00000000
H       -0.17396091      -0.74085292      -3.68409771       0.00000000
Si       2.53791686      -2.79924105       0.19270216       0.00000000
