10
Lattice="16.290000149 0.0 0.0 0.0 16.290000149 0.0 0.0 0.0 29.1751946751" Properties=species:S:1:pos:R:3:initial_magmoms:R:1 pbc="T T T"
Si       1.92075392      -1.05834665       0.77366781       0.00000000
Si      -1.25595901      -1.32004387      -1.46786239       0.00000000
Si       1.16128153       1.43953102      -1.50269758       0.00000000
Si      -0.97026499       0.40408974       2.15257504       0.00000000
H       -1.87898636       1.96792976       0.65804652       0.00000000
Si       0.05356152       2.55396251       2.54603171       0.00000000
Si      -2.60390765      -2.60959286      -0.09756185       0.00000000
Si       2.68172498       0.12264415      -2.70031014       0.00000000
Si       2.60268590       2.76597687      -0.29078917       0.00000000
Si       3.66756321      -0.73949922      -0.71765144       0.00000000
