10
Lattice="16.290000149 0.0 0.0 0.0 16.290000149 0.0 0.0 0.0 29.1751946751" Properties=species:S:1:pos:R:3:initial_magmoms:R:1 pbc="T T T"
Si       1.36031275      -1.35274605       1.35282460       0.00000000
Si      -1.36197433       1.36292730       1.34538493       0.00000000
Si       1.34933329       1.38816051      -1.33549454       0.00000000
Si      -1.35065278      -1.38755778      -1.33616557       0.00000000
Si      -2.78335830      -0.04147108      -2.59968490       0.00000000
Si       0.00083079      -2.71678921       2.69462098       0.00000000
Si       2.79207345       0.05624611      -2.61666486       0.00000000
Si      -0.00175932       2.70631474       2.70845002       0.00000000
Si      -2.72578943       0.01494770       2.69537954       0.00000000
Si       2.71085150      -2.71410136      -0.00638937       0.00000000
