10
Lattice="16.290000149 0.0 0.0 0.0 16.290000149 0.0 0.0 0.0 29.1751946751" Properties=species:S:1:pos:R:3:initial_magmoms:R:1 pbc="T T T"
Si      -0.73987552       1.32623407      -1.79071510       0.00000000
Si       1.99040996      -0.88445741      -0.97827345       0.00000000
Si      -0.61028857       1.07158879       2.04713588       0.00000000
Si      -1.51914025      -1.85262588      -0.06605264       0.00000000
H        2.50232321       1.41302719       1.03297694       0.00000000
H        1.13049343      -0.85404235       2.78696047       0.00000000
Si      -2.49421079       2.29803032      -0.52693319       0.00000000
Si       0.80036029      -2.03062981      -2.67090155       0.00000000
Si      -0.63250813      -0.40348701      -3.59808923       0.00000000
Si       2.54327627      -2.63852390       0.52328629       0.00000000
