10
Lattice="16.290000149 0.0 0.0 0.0 16.290000149 0.0 0.0 0.0 29.1751946751" Properties=species:S:1:pos:R:3:initial_magmoms:R:1 pbc="T T T"
Si       1.37481085      -1.34622353       1.33636979       0.00000000
Si       1.36381510       1.34797959      -1.34999461       0.00000000
Si      -1.35141841      -1.36971371      -1.34979038       0.00000000
Si      -1.34996860       1.35006471       1.37248868       0.00000000
Si       0.02006928      -2.70166557       2.66976371       0.00000000
Si       0.00131949       2.71357031      -2.68595595       0.00000000
Si      -2.73321768      -0.01027410      -2.67198103       0.00000000
Si      -2.71911053       2.69465762       0.00916101       0.00000000
Si       2.72403011       2.69136704       0.01307049       0.00000000
Si       2.72578943      -0.01494770      -2.69537954       0.00000000
