10
Lattice="16.290000149 0.0 0.0 0.0 16.290000149 0.0 0.0 0.0 29.1751946751" Properties=species:S:1:pos:R:3:initial_magmoms:R:1 pbc="T T T"
H        1.31487994      -0.45779787       0.60246777       0.00000000
Si      -1.25947765       0.24734736       1.93702870       0.00000000
Si       0.26707455       2.02737197      -1.20204720       0.00000000
Si      -0.96990661      -1.99707257      -0.87563512       0.00000000
H        1.88287967      -0.58832965      -1.72644214       0.00000000
Si       3.06778170      -1.09944469      -0.92552470       0.00000000
H       -0.88800049      -2.81903340       1.69440778       0.00000000
Si      -1.92715589       2.75230956      -0.74574715       0.00000000
Si      -3.32039073      -0.44566182       1.03723652       0.00000000
H        1.07571016       0.16461045      -3.37723301       0.00000000
