10
Lattice="16.290000149 0.0 0.0 0.0 16.290000149 0.0 0.0 0.0 29.1751946751" Properties=species:S:1:pos:R:3:initial_magmoms:R:1 pbc="T T T"
Si      -2.19365215      -0.23581404      -0.64474263       0.00000000
Si       0.50711585       0.88744663       2.09757980       0.00000000
Si       1.32612819      -0.29133036      -1.91861915       0.00000000
Si       0.85085114      -2.23645412      -0.29137267       0.00000000
Si       0.76185887       2.09318357      -1.16633676       0.00000000
H       -2.23830304      -1.29979540      -1.71541392       0.00000000
H        2.06590596      -2.24041259       0.61562578       0.00000000
H        1.96200834       2.46466073      -0.28136558       0.00000000
H        3.38420681       0.43020261       0.17671415       0.00000000
Si      -2.65744474       1.89123644      -1.54319275       0.00000000
