10
Lattice="16.290000149 0.0 0.0 0.0 16.290000149 0.0 0.0 0.0 29.1751946751" Properties=species:S:1:pos:R:3:initial_magmoms:R:1 pbc="T T T"
Si       1.31053009       1.33886664      -1.36554499       0.00000000
Si      -1.27503460      -1.46240218      -1.29992997       0.00000000
Si      -1.30621366       1.41325542       1.33470681       0.00000000
Si       1.23386977      -1.49154499       1.36032263       0.00000000
H       -1.92295307      -2.28999935      -0.22508663       0.00000000
Si      -2.60001434      -0.02687850       2.61220106       0.00000000
Si       2.54151532       2.70031025       0.07994003       0.00000000
Si      -0.15830622       2.63109404      -2.63857543       0.00000000
Si       2.68880462      -0.05651001      -2.66497898       0.00000000
Si       2.57518675      -2.79189426      -0.06263914       0.00000000
