10
Lattice="16.290000149 0.0 0.0 0.0 16.290000149 0.0 0.0 0.0 29.1751946751" Properties=species:S:1:pos:R:3:initial_magmoms:R:1 pbc="T T T"
Si      -0.84488086      -0.93362878      -0.80996175       0.00000000
H        1.43835814       0.90995941       0.54753088       0.00000000
H        0.80716951      -0.75294010       1.65079087       0.00000000
Si       2.08627661       1.73755658      -0.52731247       0.00000000
Si      -1.09392238       2.75099007      -0.06433130       0.00000000
Si      -0.80863561       1.86276152       2.17518581       0.00000000
Si      -2.13980555       0.35971578      -2.23697888       0.00000000
Si       0.58474585      -2.37783503      -1.92999748       0.00000000
Si      -2.67586058      -1.75886390       0.35409934       0.00000000
Si       1.99207154      -1.26405514       2.45170831       0.00000000
