10
Lattice="16.290000149 0.0 0.0 0.0 16.290000149 0.0 0.0 0.0 29.1751946751" Properties=species:S:1:pos:R:3:initial_magmoms:R:1 pbc="T T T"
Si       2.23304951      -0.50722173       0.30794418       0.00000000
Si      -1.03690738       0.66899447       2.08030808       0.00000000
Si      -0.05462037       2.06734763      -1.28685949       0.00000000
Si      -0.65309869      -1.77101624      -1.58584688       0.00000000
Si      -2.35989974       1.97509410      -0.93007603       0.00000000
H       -0.62099110      -2.88942249       1.54389295       0.00000000
Si      -3.10630755       1.37853475       1.21993159       0.00000000
Si       2.79020010      -1.54471555      -1.69569149       0.00000000
Si       3.47951145       1.27997862      -0.51998949       0.00000000
Si       1.16752060      -3.23056767      -1.75150364       0.00000000
