10
Lattice="16.290000149 0.0 0.0 0.0 16.290000149 0.0 0.0 0.0 29.1751946751" Properties=species:S:1:pos:R:3:initial_magmoms:R:1 pbc="T T T"
Si       1.83115892       1.01999836      -0.94625951       0.00000000
Si       1.40675554      -1.36559071       1.25108778       0.00000000
Si      -1.32185206       1.48987900       1.20471089       0.00000000
Si      -1.30274389      -1.18439704      -1.55253260       0.00000000
Si       0.98163541       2.26114976      -2.65269331       0.00000000
Si      -2.67284693       0.09391185       2.51335841       0.00000000
Si      -2.62749557      -2.58712895      -0.21341947       0.00000000
Si       0.04986369      -2.70536177       2.56564036       0.00000000
Si       2.74496277      -2.51864579      -0.30770494       0.00000000
Si       2.82369234       0.09381411       2.48199508       0.00000000
