10
Lattice="16.290000149 0.0 0.0 0.0 16.290000149 0.0 0.0 0.0 29.1751946751" Properties=species:S:1:pos:R:3:initial_magmoms:R:1 pbc="T T T"
Si      -1.45784098       1.21209004       1.33290436       0.00000000
Si      -1.34443000      -1.35539317      -1.34605596       0.00000000
Si       1.28876707      -1.49879404       1.33157047       0.00000000
Si       1.33105591       1.35058762      -1.48093288       0.00000000
Si       2.17473131      -0.52222482      -2.59259532       0.00000000
Si       0.37792800      -2.11193336      -2.72350442       0.00000000
Si      -0.01040931       2.54265725       2.62476973       0.00000000
Si      -2.81208734       2.47500488      -0.12907106       0.00000000
Si      -2.77691560      -0.26961579       2.58009667       0.00000000
Si       2.70640433      -0.20862603       2.67603055       0.00000000
