10
Lattice="16.290000149 0.0 0.0 0.0 16.290000149 0.0 0.0 0.0 29.1751946751" Properties=species:S:1:pos:R:3:initial_magmoms:R:1 pbc="T T T"
Si       1.35474157       1.35544204      -1.33339392       0.00000000
Si       1.39603672      -1.45059193       1.19247773       0.00000000
Si      -1.37779192      -1.36562329      -1.33564041       0.00000000
Si      -1.30432402       1.34643367       1.43080990       0.00000000
Si      -0.01871721      -2.77744503       2.43076052       0.00000000
Si       2.66201408       2.66947653       0.11223697       0.00000000
Si      -0.02006928       2.70166557      -2.66976371       0.00000000
Si       2.70655094      -0.03007134      -2.67052227       0.00000000
Si      -2.64749969      -0.03205872       2.74453974       0.00000000
Si      -2.70529661       2.68765454       0.07150840       0.00000000
