10
Lattice="16.290000149 0.0 0.0 0.0 16.290000149 0.0 0.0 0.0 29.1751946751" Properties=species:S:1:pos:R:3:initial_magmoms:R:1 pbc="T T T"
Si       1.35963020       1.35011521      -1.35387491       0.00000000
Si       1.37059337      -1.34263810       1.35629645       0.00000000
Si      -1.33840192       1.36285399       1.37272208       0.00000000
Si      -1.34871264      -1.37823175      -1.35072399       0.00000000
Si      -2.68589360      -0.04948902       2.67758267       0.00000000
Si       2.66919960      -2.70016526      -0.06135543       0.00000000
Si      -0.02967712       2.69918786      -2.68362193       0.00000000
Si      -2.69195348      -0.02103039      -2.71994505       0.00000000
Si       2.67752379      -0.01282023      -2.74453974       0.00000000
Si       2.72769699       0.03883536       2.70605766       0.00000000
