10
Lattice="16.290000149 0.0 0.0 0.0 16.290000149 0.0 0.0 0.0 29.1751946751" Properties=species:S:1:pos:R:3:initial_magmoms:R:1 pbc="T T T"
Si       0.90808606      -0.81529822       0.90460609       0.00000000
H       -1.95149315      -0.36631323      -1.29266535       0.00000000
Si       0.92681956       1.02040561      -2.03876260       0.00000000
Si      -0.96413995      -0.30856518      -2.44797388       0.00000000
Si      -0.68040073       2.55531784      -0.96508626       0.00000000
Si      -1.42084639       2.21426714       1.29581627       0.00000000
Si       1.94535182      -2.30892833      -0.55625426       0.00000000
Si      -0.47227968      -2.04252167       2.34793214       0.00000000
Si       2.81254998       0.48088080       1.52942206       0.00000000
Si       2.85907422      -0.47985453      -1.73609913       0.00000000
