10
Lattice="16.290000149 0.0 0.0 0.0 16.290000149 0.0 0.0 0.0 29.1751946751" Properties=species:S:1:pos:R:3:initial_magmoms:R:1 pbc="T T T"
Si      -1.41814388       1.22091922      -1.37943238       0.00000000
Si      -1.31304895      -1.49244094       1.26445294       0.00000000
Si       1.50105835      -1.33607323      -1.25097400       0.00000000
Si       0.66694519       1.87738994       1.29724586       0.00000000
Si       0.25725168      -2.56086947       2.62670113       0.00000000
Si       0.04365720       2.60307686      -2.59773016       0.00000000
Si      -2.75946087       2.52126848       0.04352939       0.00000000
Si       0.06475275      -2.74522341      -2.56750466       0.00000000
Si      -2.70824510      -0.18881739      -2.69756767       0.00000000
Si      -0.99013879       3.52681761       1.20400193       0.00000000
