10
Lattice="16.290000149 0.0 0.0 0.0 16.290000149 0.0 0.0 0.0 29.1751946751" Properties=species:S:1:pos:R:3:initial_magmoms:R:1 pbc="T T T"
H       -0.90808606       0.81529822      -0.90460609       0.00000000
Si       1.03726576      -1.49363011      -1.46086035       0.00000000
Si      -1.38036574      -1.22722345       1.44332606       0.00000000
Si       1.90446392       1.29617902       0.62481597       0.00000000
Si       1.95098816       0.33544368      -2.64070522       0.00000000
Si       0.01873350       1.83570383      -2.94336869       0.00000000
H       -2.85957921       0.44898498      -2.19727144       0.00000000
Si       2.15277239       0.78969034       2.93021943       0.00000000
Si       0.01829367      -2.65409714       2.66325765       0.00000000
Si       2.54741393      -2.79972975      -0.16895355       0.00000000
