10
Lattice="16.290000149 0.0 0.0 0.0 16.290000149 0.0 0.0 0.0 29.1751946751" Properties=species:S:1:pos:R:3:initial_magmoms:R:1 pbc="T T T"
Si       1.45987821       1.18078066      -1.41359653       0.00000000
Si      -1.39373983      -1.32232447      -1.36729550       0.00000000
Si      -1.32952465       1.44257725       1.31226525       0.00000000
Si       1.38888541      -1.35395965       1.36026719       0.00000000
Si       0.14731047      -2.59131548      -2.56519982       0.00000000
Si       0.06064767       2.34545051      -2.88169233       0.00000000
H       -0.83895130       3.09940059      -1.91176298       0.00000000
Si      -2.67079439       0.02568933       2.67308969       0.00000000
Si       2.67935479       2.68074758      -0.02609429       0.00000000
Si      -2.60884352      -2.75167425       0.08155342       0.00000000
