10
Lattice="16.290000149 0.0 0.0 0.0 16.290000149 0.0 0.0 0.0 29.1751946751" Properties=species:S:1:pos:R:3:initial_magmoms:R:1 pbc="T T T"
Si      -1.57030063       1.06842853      -1.36224819       0.00000000
Si       1.37855755      -1.48585978      -1.21231686       0.00000000
Si      -0.85467115      -1.46642581       1.64416810       0.00000000
Si       0.43292304       1.81700291       1.48300432       0.00000000
H        0.34547832      -1.09494865       2.52913928       0.00000000
Si      -1.88311750       1.98097805       2.07788654       0.00000000
Si      -0.25725168       2.56086947      -2.62670113       0.00000000
Si      -3.06058152       2.13822542       0.06514821       0.00000000
Si       2.69213429      -0.12650814      -2.59600882       0.00000000
Si      -0.12654072      -2.82739017      -2.51335550       0.00000000
