10
Lattice="16.290000149 0.0 0.0 0.0 16.290000149 0.0 0.0 0.0 29.1751946751" Properties=species:S:1:pos:R:3:initial_magmoms:R:1 pbc="T T T"
Si      -0.85100590       1.84267595      -1.12038583       0.00000000
Si       1.71592346      -0.44637858      -1.52242001       0.00000000
Si       1.37112931       1.02584647       1.63760368       0.00000000
Si      -1.38842929      -1.73245781       0.91986471       0.00000000
H       -1.99040996      -1.14732100      -2.18773115       0.00000000
H        1.12461274      -0.53475183      -2.92793501       0.00000000
Si       2.19797714      -2.47717145      -0.46826187       0.00000000
Si       0.32817834      -3.36681723       0.81139134       0.00000000
Si       2.64003887       2.50595588       0.31488788       0.00000000
H       -0.56821150      -3.18177912      -1.72965142       0.00000000
