10
Lattice="16.290000149 0.0 0.0 0.0 16.290000149 0.0 0.0 0.0 29.1751946751" Properties=species:S:1:pos:R:3:initial_magmoms:R:1 pbc="T T T"
Si       1.29893203       1.28327816       1.50717597       0.00000000
Si      -1.34017831      -1.36504907       1.40562587       0.00000000
Si       1.48519189      -1.30107824      -1.33143918       0.00000000
Si      -1.33848415       1.39146656      -1.41353818       0.00000000
Si       0.00128691      -2.55711870      -2.70007674       0.00000000
Si      -2.58344741       2.72374097       0.08944852       0.00000000
Si       2.70138701      -2.71360044       0.11777355       0.00000000
Si       2.28799568       3.06972428       0.35433857       0.00000000
Si       3.09475794       0.18663860      -2.27726982       0.00000000
Si       2.37804680       2.38124371      -1.87666522       0.00000000
