10
Lattice="16.290000149 0.0 0.0 0.0 16.290000149 0.0 0.0 0.0 29.1751946751" Properties=species:S:1:pos:R:3:initial_magmoms:R:1 pbc="T T T"
Si      -1.35974260      -1.36257706       1.34395534       0.00000000
Si       1.35457867       1.35216775       1.36163551       0.00000000
Si       1.36906048      -1.37968156      -1.32154879       0.00000000
Si      -1.38398212       1.33794658      -1.35043224       0.00000000
Si      -0.02210553       2.69993720      -2.68137544       0.00000000
Si       2.71759556      -0.04191417       2.66570836       0.00000000
Si      -0.00426798      -2.70604595      -2.68510987       0.00000000
Si      -2.73427653       0.00161271       2.67647401       0.00000000
Si       2.72834697       2.69552261       0.01998501       0.00000000
Si      -0.00860112      -2.73906579       2.68566420       0.00000000
