10
Lattice="16.290000149 0.0 0.0 0.0 16.290000149 0.0 0.0 0.0 29.1751946751" Properties=species:S:1:pos:R:3:initial_magmoms:R:1 pbc="T T T"
Si      -1.36720342       1.35715249      -1.32776311       0.00000000
Si       1.34886088       1.36122499       1.34809822       0.00000000
Si      -1.37552761      -1.33019254       1.35542119       0.00000000
Si       1.37453392      -1.36418977      -1.33251867       0.00000000
Si       2.66896991      -0.07970697       2.62346268       0.00000000
Si       0.00083079       2.70117524      -2.67058062       0.00000000
Si       0.00915498      -2.71933859      -2.67918730       0.00000000
Si      -2.70778898      -0.00555489      -2.69237449       0.00000000
Si      -2.68509701       2.72008793       0.06290172       0.00000000
Si       2.73427653      -0.00161271      -2.67647401       0.00000000
