10
Lattice="16.290000149 0.0 0.0 0.0 16.290000149 0.0 0.0 0.0 29.1751946751" Properties=species:S:1:pos:R:3:initial_magmoms:R:1 pbc="T T T"
Si       0.09005112      -0.68848057      -2.23100380       0.00000000
Si      -0.98906365      -1.78644612       1.15283739       0.00000000
Si       1.83220148       0.88153336       1.19344051       0.00000000
Si      -1.62802261       1.73778464      -0.08203131       0.00000000
H        2.53192214      -0.94495033      -0.73606682       0.00000000
Si      -2.30006657      -0.46288035       2.55770763       0.00000000
Si       0.54993412       2.33241851       2.51982364       0.00000000
Si      -2.10810521      -0.29985003      -3.04236596       0.00000000
Si      -2.06065244       1.99114301      -2.36520969       0.00000000
Si       2.03074400       0.33536223      -3.13257566       0.00000000
