10
Lattice="16.290000149 0.0 0.0 0.0 16.290000149 0.0 0.0 0.0 29.1751946751" Properties=species:S:1:pos:R:3:initial_magmoms:R:1 pbc="T T T"
Si      -0.62486812       0.40645179      -2.14360367       0.00000000
Si      -1.89648182      -0.80646904       1.11708028       0.00000000
Si       0.87843826       1.92252953       1.03790172       0.00000000
Si       1.68972914      -1.66268774      -0.12078706       0.00000000
H       -1.19676115      -2.63295272      -0.81242706       0.00000000
Si       2.20012742       0.65412496       2.50227184       0.00000000
Si      -0.64251019      -2.17523630       2.52841573       0.00000000
Si       3.45245376      -0.74458333       1.12684521       0.00000000
Si       0.85341682      -3.41236081       1.24962319       0.00000000
Si      -2.32901390       2.00300213      -2.15757858       0.00000000
