10
Lattice="16.290000149 0.0 0.0 0.0 16.290000149 0.0 0.0 0.0 29.1751946751" Properties=species:S:1:pos:R:3:initial_magmoms:R:1 pbc="T T T"
Si      -1.30818475      -1.29143863       1.46929198       0.00000000
Si      -1.34873056       1.36034533      -1.37877886       0.00000000
Si       1.43340598      -1.37168317      -1.27999456       0.00000000
Si       1.37145511       1.40568040       1.31154170       0.00000000
Si      -2.62378145      -2.64979658       0.12556712       0.00000000
Si       2.64850967       0.05766660      -2.72884348       0.00000000
Si       2.75509515      -2.64008774       0.18437556       0.00000000
Si      -2.71267598       2.70891299       0.01119744       0.00000000
Si       2.71153568       0.06895557       2.73286966       0.00000000
Si       0.02557530       2.68495040       2.77152679       0.00000000
