10
Lattice="16.290000149 0.0 0.0 0.0 16.290000149 0.0 0.0 0.0 29.1751946751" Properties=species:S:1:pos:R:3:initial_magmoms:R:1 pbc="T T T"
Si       1.57776796      -1.08517465       1.32420374       0.00000000
Si      -1.23356026      -1.13616235      -1.62374546       0.00000000
Si      -1.60243102      -0.07174116       1.78718490       0.00000000
Si       1.29446857       1.59283621      -1.27346807       0.00000000
H        0.92984950      -1.91277182       2.39904708       0.00000000
H       -0.50850864      -2.82273123       1.85151620       0.00000000
Si      -1.71836696       2.23344210       2.02160759       0.00000000
Si      -2.64831419      -2.46301544      -0.38546267       0.00000000
Si       2.81476542      -2.45179163      -0.09271877       0.00000000
Si       0.12834891      -2.50646087      -2.88466820       0.00000000
