10
Lattice="16.290000149 0.0 0.0 0.0 16.290000149 0.0 0.0 0.0 29.1751946751" Properties=species:S:1:pos:R:3:initial_magmoms:R:1 pbc="T T T"
Si       0.85100590      -1.84267595       1.12038583       0.00000000
Si      -1.72235801       0.75654019       1.37744847       0.00000000
Si      -1.05195934      -0.07804539      -2.11348028       0.00000000
Si       1.79680331       1.58970853       0.13090910       0.00000000
H        2.31889781       1.85647358      -1.25546698       0.00000000
H       -1.13940406      -2.98999695      -1.06734532       0.00000000
H        1.67423735       0.92266561      -2.88472655       0.00000000
Si       2.56692935      -2.28905453      -0.40203418       0.00000000
Si      -0.37792800       2.11193336       2.72350442       0.00000000
Si      -0.58109689       2.13236102      -2.71597722       0.00000000
