10
Lattice="16.290000149 0.0 0.0 0.0 16.290000149 0.0 0.0 0.0 29.1751946751" Properties=species:S:1:pos:R:3:initial_magmoms:R:1 pbc="T T T"
Si      -1.33962445      -1.34899120       1.37205106       0.00000000
Si       1.32299236      -1.37121076      -1.37321806       0.00000000
Si      -1.36019872       1.32509377      -1.39113163       0.00000000
Si       1.34449516       1.32603859       1.40758644       0.00000000
Si       2.69935076       2.67406868       0.01444172       0.00000000
Si       2.62734896      -2.75146248       0.00160464       0.00000000
Si      -2.73176787       0.00399105       2.68510987       0.00000000
Si      -2.73318509       2.68428251      -0.07054562       0.00000000
Si       2.67652847      -0.02280600      -2.74634860       0.00000000
Si      -0.00677664       2.70011639      -2.73354069       0.00000000
