10
Lattice="16.290000149 0.0 0.0 0.0 16.290000149 0.0 0.0 0.0 29.1751946751" Properties=species:S:1:pos:R:3:initial_magmoms:R:1 pbc="T T T"
Si      -0.09005112       0.68848057       2.23100380       0.00000000
Si       0.71671114      -2.19460511      -0.40060460       0.00000000
Si       1.94069288       1.02384280      -0.90157187       0.00000000
Si      -2.19815633       0.38863053      -0.81136216       0.00000000
H        2.44187102      -0.25646976       1.49493698       0.00000000
Si       2.60771951      -1.64929736       0.89427807       0.00000000
Si      -2.15070356       2.67962357      -0.13420590       0.00000000
Si       1.45715680      -1.85355441      -2.66150713       0.00000000
Si       1.01581183       2.06720102      -2.73701254       0.00000000
Si       0.24684237       0.01920591      -3.61617785       0.00000000
