10
Lattice="16.290000149 0.0 0.0 0.0 16.290000149 0.0 0.0 0.0 29.1751946751" Properties=species:S:1:pos:R:3:initial_magmoms:R:1 pbc="T T T"
Si      -1.37101528       1.35681040       1.33243114       0.00000000
Si      -1.37386603      -1.34721559      -1.34235071       0.00000000
Si       1.34938216       1.36482508      -1.35682160       0.00000000
Si       1.36914193      -1.34459290       1.36332767       0.00000000
Si      -0.00330687       2.71485884       2.66083610       0.00000000
Si      -0.01410714      -2.70493172      -2.68114204       0.00000000
Si       2.71911053      -2.69465762      -0.00916101       0.00000000
Si       2.72043002       0.01891269      -2.69511696       0.00000000
Si      -2.70387938       0.02313180      -2.71408084       0.00000000
Si      -2.71824716      -2.70264134       0.02266913       0.00000000
