10
Lattice="16.290000149 0.0 0.0 0.0 16.290000149 0.0 0.0 0.0 29.1751946751" Properties=species:S:1:pos:R:3:initial_magmoms:R:1 pbc="T T T"
Si      -1.33504696      -1.33432971      -1.32694037       0.00000000
Si       1.31673586      -1.43513761       1.27568539       0.00000000
Si      -1.44274015       1.33191440       1.28117032       0.00000000
Si       1.29908680       1.29636961      -1.46662537       0.00000000
Si       2.63137748      -0.05110336       2.63869213       0.00000000
Si      -0.07377741       2.67994449       2.61949485       0.00000000
Si      -2.74799271       0.00620486      -2.59008042       0.00000000
Si       2.66190983       2.68999542      -0.15066071       0.00000000
Si      -0.08122194      -2.77034747       2.61027549       0.00000000
Si       2.59755618      -2.78028437      -0.18047775       0.00000000
