10
Lattice="16.290000149 0.0 0.0 0.0 16.290000149 0.0 0.0 0.0 29.1751946751" Properties=species:S:1:pos:R:3:initial_magmoms:R:1 pbc="T T T"
Si       1.33301071       1.33770223      -1.35056907       0.00000000
Si      -1.25232634       1.39870828       1.37542663       0.00000000
Si      -1.76272463      -0.91810441      -1.24763227       0.00000000
Si       1.44804256      -1.37761273       1.24623303       0.00000000
Si       1.08004330      -1.95338279      -2.78576137       0.00000000
Si      -3.45245376       0.74458333      -1.12684521       0.00000000
Si      -2.57401550       2.66711285      -0.08894350       0.00000000
Si      -2.59903694      -2.66777749       0.12277797       0.00000000
Si       2.61745930      -0.07969068      -2.67206564       0.00000000
Si      -2.66888846      -0.00237834       2.63227651       0.00000000
