10
Lattice="16.290000149 0.0 0.0 0.0 16.290000149 0.0 0.0 0.0 29.1751946751" Properties=species:S:1:pos:R:3:initial_magmoms:R:1 pbc="T T T"
Si      -1.37324701      -1.28371717      -1.38281641       0.00000000
Si       1.19812951      -1.40061421       1.43978127       0.00000000
Si       1.87017347       0.80005078      -1.19995767       0.00000000
Si      -1.42599403       1.37999107       1.28115282       0.00000000
Si       2.50913243      -2.72417998       0.03491104       0.00000000
Si       2.62392806       0.00337203       2.68307052       0.00000000
Si       2.67770135       2.65952171      -0.01842705       0.00000000
Si       3.49819608      -0.93773386      -1.11792636       0.00000000
Si      -2.71526935      -2.67478870      -0.00625516       0.00000000
Si      -0.10518453       2.72005535       2.67510569       0.00000000
