10
Lattice="16.290000149 0.0 0.0 0.0 16.290000149 0.0 0.0 0.0 29.1751946751" Properties=species:S:1:pos:R:3:initial_magmoms:R:1 pbc="T T T"
Si       1.32010903      -1.44093196       1.27536446       0.00000000
Si      -1.34886088      -1.36122499      -1.34809822       0.00000000
Si       1.38836413       1.35985663      -1.31288376       0.00000000
Si      -1.29041236       1.36826227       1.41158344       0.00000000
Si       2.74743885      -0.05196510       2.45351717       0.00000000
Si       0.01804932       2.70156620      -2.66550414       0.00000000
Si      -2.66457161       2.72029970       0.06713212       0.00000000
Si      -2.71606430      -0.00407250      -2.67586133       0.00000000
Si      -0.06310746      -2.77672827       2.61599383       0.00000000
Si       2.73999432      -0.01066995      -2.66293672       0.00000000
