10
Lattice="16.290000149 0.0 0.0 0.0 16.290000149 0.0 0.0 0.0 29.1751946751" Properties=species:S:1:pos:R:3:initial_magmoms:R:1 pbc="T T T"
Si      -1.21712365       1.32804226      -1.51693507       0.00000000
Si       1.33763707       1.44971227       1.29470761       0.00000000
Si      -1.61631010      -1.02058480       1.39895058       0.00000000
Si       1.78660577      -1.54383589      -0.62945483       0.00000000
H       -0.84564649      -1.73833850      -1.75955599       0.00000000
H       -0.19360665      -2.15950016      -1.71153362       0.00000000
H        1.35723394       0.62289703      -2.85149600       0.00000000
Si      -0.04818582      -2.30570291       2.51834445       0.00000000
Si       0.04235400       1.08069490      -3.45396377       0.00000000
Si       1.02490165      -3.41474241       0.65002334       0.00000000
