10
Lattice="16.290000149 0.0 0.0 0.0 16.290000149 0.0 0.0 0.0 29.1751946751" Properties=species:S:1:pos:R:3:initial_magmoms:R:1 pbc="T T T"
Si      -1.37072369      -1.37207250      -1.32977620       0.00000000
Si       1.34687187       1.35430337      -1.37569795       0.00000000
Si       1.40593941      -1.33809156       1.33278124       0.00000000
Si      -1.39572884       1.33721516       1.34836080       0.00000000
Si      -0.01636005       2.69858676       2.68204647       0.00000000
Si       0.06927323      -2.68809275       2.70325684       0.00000000
Si      -2.70332715      -0.00596703      -2.70144798       0.00000000
Si      -2.70008544       2.71746687      -0.02646190       0.00000000
Si      -0.00135207      -2.71192502      -2.70982126       0.00000000
Si       2.70267230       2.72240274      -0.03871548       0.00000000
