10
Lattice="16.290000149 0.0 0.0 0.0 16.290000149 0.0 0.0 0.0 29.1751946751" Properties=species:S:1:pos:R:3:initial_magmoms:R:1 pbc="T T T"
Si      -0.44496135      -1.28611180       0.66405661       0.00000000
H        0.52160580      -1.54895095      -1.81020413       0.00000000
Si       1.55688418      -0.44277849      -2.02566294       0.00000000
Si       2.73434820      -0.60002587      -0.01292461       0.00000000
Si      -1.26470674      -0.30897243       2.61088817       0.00000000
Si      -2.32588622      -1.99642097      -0.60518106       0.00000000
Si       1.56589255      -2.65334780       0.58779265       0.00000000
Si      -2.77485492       0.99712720       1.31898138       0.00000000
Si      -1.86113252       2.82620100       0.13913650       0.00000000
Si       0.29752056       1.19925352      -3.18315961       0.00000000
