10
Lattice="16.290000149 0.0 0.0 0.0 16.290000149 0.0 0.0 0.0 29.1751946751" Properties=species:S:1:pos:R:3:initial_magmoms:R:1 pbc="T T T"
Si       0.89959897      -0.75395008      -0.96992935       0.00000000
Si      -1.08854668       1.70543270       0.78645530       0.00000000
Si      -1.91591579      -0.28918008       1.88731709       0.00000000
Si      -1.33685515       2.21192138      -1.51894816       0.00000000
Si       2.29882951      -1.91861993       0.49816645       0.00000000
Si      -0.69390514      -1.88398739      -2.31271768       0.00000000
Si       2.05413644       0.88195690      -2.15803080       0.00000000
Si       0.83768068       2.53990424       1.89089105       0.00000000
Si      -0.49057335      -1.65682334       3.22402823       0.00000000
Si      -3.22302540      -1.73835479       0.51949352       0.00000000
