10
Lattice="16.290000149 0.0 0.0 0.0 16.290000149 0.0 0.0 0.0 29.1751946751" Properties=species:S:1:pos:R:3:initial_magmoms:R:1 pbc="T T T"
Si       1.37052984       1.36902790       1.32467054       0.00000000
Si       1.37945839      -1.34830376      -1.34089195       0.00000000
Si      -1.32569650       1.38274408      -1.36008923       0.00000000
Si      -1.35110890      -1.35175073       1.37289714       0.00000000
Si      -2.68367978      -2.70619256      -0.01009462       0.00000000
Si      -2.69465924       0.03471399      -2.69841376       0.00000000
Si       0.00566892       2.72008793       2.67475267       0.00000000
Si       2.69909012       0.00851967       2.69864716       0.00000000
Si       2.70386309       0.03655476      -2.70103952       0.00000000
Si      -2.69039126       2.73052983      -0.01032802       0.00000000
