10
Lattice="10.86 0.0 0.0 0.0 10.86 0.0 0.0 0.0 10.86" Properties=species:S:1:pos:R:3:initial_magmoms:R:1 pbc="T T T"
Si       1.35750000      -1.35750000      -1.35750000       0.00000000
Si       1.35750000       1.35750000       1.35750000       0.00000000
Si      -1.35750000       1.35750000      -1.35750000       0.00000000
Si      -1.35750000      -1.35750000       1.35750000       0.00000000
Si       0.07418466       2.63445138      -2.56297086       0.00000000
Si      -0.23785572       2.47427724       2.78709954       0.00000000
Si       0.25031214      -2.61914964       2.70972204       0.00000000
Si      -0.05049900      -2.60826792      -2.76364194       0.00000000
Si      -2.72998680       0.05110716       2.67797826       0.00000000
Si      -2.71500000       2.71500000       0.00000000       0.00000000
