10
Lattice="10.86 0.0 0.0 0.0 10.86 0.0 0.0 0.0 10.86" Properties=species:S:1:pos:R:3:initial_magmoms:R:1 pbc="T T T"
Si       1.10718786      -1.45335036      -1.35222204       0.00000000
Si      -1.60781214       1.26164964      -1.35222204       0.00000000
Si      -1.60781214      -1.45335036       1.36277796       0.00000000
Si       2.50315398       2.55170904       0.39941994       0.00000000
Si       2.34758448      -0.13949670       2.73920694       0.00000000
Si       2.46468786      -0.09585036      -2.70972204       0.00000000
Si       2.46468786      -2.81085036       0.00527796       0.00000000
Si      -0.25031214       2.61914964      -2.70972204       0.00000000
Si      -2.97721470      -0.29282904       2.45695554       0.00000000
Si      -0.25031214      -2.81085036      -2.70972204       0.00000000
