10
Lattice="10.86 0.0 0.0 0.0 10.86 0.0 0.0 0.0 10.86" Properties=species:S:1:pos:R:3:initial_magmoms:R:1 pbc="T T T"
Si      -1.25333088       1.23569424      -1.36278882       0.00000000
Si       0.90501810       0.65268600       1.95955668       0.00000000
Si      -1.25333088      -1.47930576       1.35221118       0.00000000
Si       1.46166912      -1.47930576      -1.36278882       0.00000000
Si       0.24807498       2.48985048      -2.63617812       0.00000000
Si      -2.61083088       2.59319424      -0.00528882       0.00000000
Si       2.72120106      -0.02857266      -2.55902868       0.00000000
Si      -0.17865786       2.59338972       2.71924626       0.00000000
Si      -2.61083088      -0.12180576       2.70971118       0.00000000
Si      -2.61083088      -0.12180576      -2.72028882       0.00000000
