10
Lattice="10.86 0.0 0.0 0.0 10.86 0.0 0.0 0.0 10.86" Properties=species:S:1:pos:R:3:initial_magmoms:R:1 pbc="T T T"
Si      -1.16062992       1.49242464      -1.27793964       0.00000000
Si       1.55437008      -1.22257536      -1.27793964       0.00000000
Si       1.55437008       1.49242464       1.43706036       0.00000000
Si      -1.59163074      -1.30084338       1.80773388       0.00000000
Si      -2.37422406      -2.68341912       0.16367106       0.00000000
Si      -2.51812992       0.13492464      -2.63543964       0.00000000
Si       0.19687008      -2.58007536      -2.63543964       0.00000000
Si      -2.51812992       2.84992464       0.07956036       0.00000000
Si       0.19687008       2.84992464      -2.63543964       0.00000000
Si       2.91187008       0.13492464      -2.63543964       0.00000000
