10
Lattice="10.86 0.0 0.0 0.0 10.86 0.0 0.0 0.0 10.86" Properties=species:S:1:pos:R:3:initial_magmoms:R:1 pbc="T T T"
Si      -1.26467958       1.43236884      -1.18192638       0.00000000
Si      -1.26467958      -1.28263116       1.53307362       0.00000000
Si       1.45032042       1.43236884       1.53307362       0.00000000
Si       2.65470528      -2.23926684       0.00880746       0.00000000
Si      -2.87492436       0.34529370      -2.31837108       0.00000000
Si       0.09282042       2.78986884      -2.53942638       0.00000000
Si       2.82899742       0.22503006      -2.51909646       0.00000000
Si      -2.62217958       2.78986884       0.17557362       0.00000000
Si      -2.62217958       0.07486884       2.89057362       0.00000000
Si       0.09282042      -2.64013116       2.89057362       0.00000000
