10
Lattice="10.86 0.0 0.0 0.0 10.86 0.0 0.0 0.0 10.86" Properties=species:S:1:pos:R:3:initial_magmoms:R:1 pbc="T T T"
Si       1.51061514       0.95663568       1.52426616       0.00000000
Si       1.51061514      -1.75836432      -1.19073384       0.00000000
Si      -1.20438486      -1.75836432       1.52426616       0.00000000
Si      -2.65470528       2.23926684      -0.00880746       0.00000000
Si       0.17429214       2.46429690      -2.52790392       0.00000000
Si       2.86811514       2.31413568       0.16676616       0.00000000
Si       0.15311514       2.31413568       2.88176616       0.00000000
Si       2.86811514      -0.40086432      -2.54823384       0.00000000
Si      -2.56188486      -0.40086432       2.88176616       0.00000000
Si       2.86811514      -0.40086432       2.88176616       0.00000000
