10
Lattice="10.86 0.0 0.0 0.0 10.86 0.0 0.0 0.0 10.86" Properties=species:S:1:pos:R:3:initial_magmoms:R:1 pbc="T T T"
Si      -1.27737492       1.06307454       1.34471778       0.00000000
Si      -1.49064360      -1.76829036      -1.29222054       0.00000000
Si       1.38888540      -1.78112688       1.39227372       0.00000000
Si      -0.15657948       2.41935822      -2.21208426       0.00000000
Si      -2.81101326       2.34499980       0.13917090       0.00000000
Si      -0.09601326       2.34499980       2.85417090       0.00000000
Si      -2.81101326      -0.37000020      -2.57582910       0.00000000
Si       2.61898674      -0.37000020       2.85417090       0.00000000
Si      -0.09601326      -3.08500020      -2.57582910       0.00000000
Si      -2.81101326      -0.37000020       2.85417090       0.00000000
