10
Lattice="10.86 0.0 0.0 0.0 10.86 0.0 0.0 0.0 10.86" Properties=species:S:1:pos:R:3:initial_magmoms:R:1 pbc="T T T"
Si       1.50722682      -1.17451986      -1.15313652       0.00000000
Si      -1.20777318      -1.17451986       1.56186348       0.00000000
Si       1.50722682       1.54048014       1.56186348       0.00000000
Si       0.14972682      -2.53201986      -2.51063652       0.00000000
Si      -2.56527318      -2.53201986       0.20436348       0.00000000
Si      -2.58327906       0.31883874      -2.50346892       0.00000000
Si       0.25075740       2.68755678      -2.53380090       0.00000000
Si      -2.43787452       0.12935346       2.81496630       0.00000000
Si       2.86472682       0.18298014      -2.51063652       0.00000000
Si       2.86472682      -2.53201986       0.20436348       0.00000000
