10
Lattice="10.86 0.0 0.0 0.0 10.86 0.0 0.0 0.0 10.86" Properties=species:S:1:pos:R:3:initial_magmoms:R:1 pbc="T T T"
Si       1.35750000      -1.35750000      -1.35750000       0.00000000
Si       1.35750000       1.35750000       1.35750000       0.00000000
Si      -1.35750000      -1.35750000       1.35750000       0.00000000
Si      -1.35750000       1.35750000      -1.35750000       0.00000000
Si       0.11651694       2.56242786       2.70966774       0.00000000
Si      -2.59068558       0.09423222       2.69994804       0.00000000
Si      -0.13671654       2.64723360      -2.65067622       0.00000000
Si      -0.01800588      -2.57914140       2.72216760       0.00000000
Si       2.59544226       0.12811542      -2.73385296       0.00000000
Si      -2.53886166       0.07557474      -2.86695312       0.00000000
