10
Lattice="10.86 0.0 0.0 0.0 10.86 0.0 0.0 0.0 10.86" Properties=species:S:1:pos:R:3:initial_magmoms:R:1 pbc="T T T"
Si       1.47705774       1.22938458       1.37635296       0.00000000
Si      -1.23794226      -1.48561542       1.37635296       0.00000000
Si       1.47705774      -1.48561542      -1.33864704       0.00000000
Si      -2.73215880       2.51911818       0.08317674       0.00000000
Si       0.11955774       2.58688458       2.73385296       0.00000000
Si      -2.59544226      -0.12811542       2.73385296       0.00000000
Si      -2.46804360      -2.89674210      -0.08554422       0.00000000
Si       2.83455774       2.58688458       0.01885296       0.00000000
Si       2.83455774      -0.12811542      -2.69614704       0.00000000
Si       2.83455774      -0.12811542       2.73385296       0.00000000
