10
Lattice="16.2900001489832 0.0 0.0 0.0 16.2900001489832 0.0 0.0 0.0 29.22087183550747" Properties=species:S:1:pos:R:3:initial_magmoms:R:1 pbc="T T T"
Si      -1.96115312       1.05099660      -0.66603133       0.00000000
Si       0.33860394       0.10379174       2.31902683       0.00000000
Si       0.34806843      -1.77111561      -1.53356980       0.00000000
Si       1.80721262       1.54837918      -0.10998736       0.00000000
Si       0.40449699       3.35770949       0.41701106       0.00000000
Si       2.64099998      -1.75827909      -1.32709512       0.00000000
Si       2.82488151       0.47295572      -1.97433743       0.00000000
H        0.57392929       2.05345063      -2.75491458       0.00000000
Si      -1.91790317       2.97331436       0.59531682       0.00000000
Si      -3.58397922      -0.09887704       0.44766376       0.00000000
