10
Lattice="16.2900001489832 0.0 0.0 0.0 16.2900001489832 0.0 0.0 0.0 29.22087183550747" Properties=species:S:1:pos:R:3:initial_magmoms:R:1 pbc="T T T"
Si       2.29293155       0.01283652       0.20647468       0.00000000
Si      -1.03240645      -2.12353184      -0.12787054       0.00000000
Si      -0.34806843       1.77111561       1.53356980       0.00000000
Si      -0.61989804       0.53665776      -2.22259795       0.00000000
Si      -2.17168508      -1.48610413      -2.08119815       0.00000000
Si       2.47681307       2.24407132      -0.44076763       0.00000000
Si      -2.33890193      -2.07368444       1.81259990       0.00000000
Si       2.72494235      -0.23534163       2.53923532       0.00000000
Si      -2.30922155       2.82211221       0.86753846       0.00000000
Si       3.23226183      -1.18016164      -1.57146927       0.00000000
