10
Lattice="16.2900001489832 0.0 0.0 0.0 16.2900001489832 0.0 0.0 0.0 29.22087183550747" Properties=species:S:1:pos:R:3:initial_magmoms:R:1 pbc="T T T"
H       -0.94310956      -1.04678889      -0.58430055       0.00000000
Si       0.47659653       1.32139757      -1.85815524       0.00000000
Si       1.54644229      -1.36309818       1.14724065       0.00000000
Si      -1.32535441       1.48459079       1.27010962       0.00000000
H       -2.03362733      -0.03247900      -2.75582042       0.00000000
Si      -1.77152123       2.24157081      -2.08844493       0.00000000
Si      -2.71311419      -0.09666160       2.37553707       0.00000000
Si       0.22698486       2.59291353       2.65139672       0.00000000
Si       0.25958115      -2.88433838       2.45492726       0.00000000
Si       2.88816816      -0.07797209       2.56868119       0.00000000
