10
Lattice="16.2900001489832 0.0 0.0 0.0 16.2900001489832 0.0 0.0 0.0 29.22087183550747" Properties=species:S:1:pos:R:3:initial_magmoms:R:1 pbc="T T T"
Si      -0.18388152      -2.23123480       0.64724231       0.00000000
Si       2.27366048       0.56856010       0.25796186       0.00000000
Si      -1.01766889       1.07542346       1.86435006       0.00000000
Si       1.59200542       0.20698726      -2.08090595       0.00000000
H       -0.18909432       2.70558006      -0.57869015       0.00000000
H       -2.25095222       1.58049491      -0.78057715       0.00000000
Si      -1.28199043       2.42446353      -1.61500837       0.00000000
Si      -2.47681307      -2.24407132       0.44076763       0.00000000
Si      -2.82488151      -0.47295572       1.97433743       0.00000000
Si       0.85105477      -1.90124827      -2.90668778       0.00000000
