10
Lattice="16.2900001489832 0.0 0.0 0.0 16.2900001489832 0.0 0.0 0.0 29.22087183550747" Properties=species:S:1:pos:R:3:initial_magmoms:R:1 pbc="T T T"
Si      -0.71564577       0.86835475      -2.04508116       0.00000000
Si      -1.96713155      -0.97034644       0.91274315       0.00000000
Si       1.04861989       1.91736560       0.93500946       0.00000000
Si       1.45326349      -1.88704991      -0.55601475       0.00000000
H        3.30129885      -0.22900482       1.14101660       0.00000000
Si       0.07293033      -0.69369337      -3.54928398       0.00000000
Si       2.42025419       2.69723306      -0.84717152       0.00000000
Si       2.17297199      -2.39739932       1.90902878       0.00000000
Si      -0.60166627       3.55876230       1.36011470       0.00000000
Si      -1.49026851      -2.57538386       2.51805019       0.00000000
