10
Lattice="16.2900001489832 0.0 0.0 0.0 16.2900001489832 0.0 0.0 0.0 29.22087183550747" Properties=species:S:1:pos:R:3:initial_magmoms:R:1 pbc="T T T"
Si      -2.27677187       0.33026346      -0.51528085       0.00000000
H        2.04705029      -1.06912900       0.47837489       0.00000000
Si       1.53267724       1.79074343      -0.28841000       0.00000000
Si       0.14129946      -1.94225672      -1.42308568       0.00000000
Si      -0.04342914       0.36890334       2.40294917       0.00000000
H        0.08294868       0.00628794      -3.30964361       0.00000000
Si      -0.02596626       3.51337836      -0.19157204       0.00000000
Si       2.66183489      -1.48779829       1.81040834       0.00000000
Si      -0.71548939       2.76581397       2.16351335       0.00000000
H        0.71752564       0.11429064      -3.52009233       0.00000000
