10
Lattice="16.2900001489832 0.0 0.0 0.0 16.2900001489832 0.0 0.0 0.0 29.22087183550747" Properties=species:S:1:pos:R:3:initial_magmoms:R:1 pbc="T T T"
Si       1.25234263      -1.28717065      -1.49544240       0.00000000
Si       1.40406769       1.35413884       1.30275121       0.00000000
Si      -1.45904644       1.38401470      -1.22679739       0.00000000
Si      -1.38544822      -1.36342414       1.33997860       0.00000000
Si       2.10455399       0.35440524      -3.02003847       0.00000000
Si      -0.34757973      -2.48841155      -2.71444130       0.00000000
Si       0.00177561       2.67814118       2.61120341       0.00000000
Si       2.61184088       2.76288177      -0.16474143       0.00000000
Si       2.69047271      -2.70164765      -0.14732871       0.00000000
Si      -0.00286704      -2.71578737       2.69623614       0.00000000
