10
Lattice="16.2900001489832 0.0 0.0 0.0 16.2900001489832 0.0 0.0 0.0 29.22087183550747" Properties=species:S:1:pos:R:3:initial_magmoms:R:1 pbc="T T T"
Si       2.18737235      -0.21022245       0.73376531       0.00000000
Si      -1.24274782      -1.80489944      -0.76368749       0.00000000
Si      -0.93933028       1.19299816       1.77794395       0.00000000
Si       0.09560601       1.52298469      -1.77598615       0.00000000
Si       2.83395504       2.14155672       0.57714144       0.00000000
Si      -0.75544876       3.42423297       1.13070164       0.00000000
Si       1.62118081       0.38964051      -3.32174105       0.00000000
Si      -3.23226183       1.18016164       1.57146927       0.00000000
Si      -2.61438212      -2.58476690       1.01849349       0.00000000
Si       0.83655667       3.63122022      -0.95020431       0.00000000
