10
Lattice="16.2900001489832 0.0 0.0 0.0 16.2900001489832 0.0 0.0 0.0 29.22087183550747" Properties=species:S:1:pos:R:3:initial_magmoms:R:1 pbc="T T T"
H       -1.90368200      -0.51401466       0.10776658       0.00000000
Si       0.91274500      -1.87268213      -1.08903267       0.00000000
Si       0.79423525      -0.24083136       2.22204276       0.00000000
Si       0.57754567       2.08515260      -1.19752977       0.00000000
H       -0.76286071      -2.39581919       1.11094833       0.00000000
H       -2.72236853       0.74875357       1.28422810       0.00000000
H       -0.29074392      -3.01262376       1.01776297       0.00000000
Si       2.53152141      -0.68261617      -2.28849102       0.00000000
Si       2.44998931       1.36469476       2.20021477       0.00000000
Si      -3.56197143      -0.42275808      -0.02948386       0.00000000
