10
Lattice="16.2900001489832 0.0 0.0 0.0 16.2900001489832 0.0 0.0 0.0 29.22087183550747" Properties=species:S:1:pos:R:3:initial_magmoms:R:1 pbc="T T T"
Si       0.38726217      -1.67931983      -1.64203767       0.00000000
Si      -2.29570085       0.56804860      -0.35626087       0.00000000
Si       0.03328047      -0.92444122       2.24591621       0.00000000
Si       1.55628145       1.81929980      -0.60796946       0.00000000
H       -0.95246002      -1.57281580      -2.35461785       0.00000000
H       -1.92938762       1.81056836       2.39134849       0.00000000
Si      -2.53703720       2.37421865       1.10583467       0.00000000
Si       1.10112256       3.51494220       0.99704537       0.00000000
Si      -3.59095134      -0.87423544       0.96560371       0.00000000
Si       1.72375895      -0.96471010      -3.38816009       0.00000000
