10
Lattice="16.2900001489832 0.0 0.0 0.0 16.2900001489832 0.0 0.0 0.0 29.22087183550747" Properties=species:S:1:pos:R:3:initial_magmoms:R:1 pbc="T T T"
Si      -0.37198215      -2.37905027       0.17795511       0.00000000
Si      -0.20106747       1.29347488       2.02906812       0.00000000
Si      -1.97377298       1.20580210      -0.78548626       0.00000000
Si       1.85626181       0.13256802      -1.67774558       0.00000000
H       -1.17002926       0.44950626       2.86349934       0.00000000
Si       2.67292838      -0.92400139       1.56317054       0.00000000
H        0.89182864       1.57459141       3.06538634       0.00000000
Si      -0.80071867       2.93376387      -1.89324951       0.00000000
Si       0.68369131       1.57061665      -3.18259126       0.00000000
Si       1.93197773      -3.03223692       0.73738870       0.00000000
