10
Lattice="16.2900001489832 0.0 0.0 0.0 16.2900001489832 0.0 0.0 0.0 29.22087183550747" Properties=species:S:1:pos:R:3:initial_magmoms:R:1 pbc="T T T"
Si      -2.29293155      -0.01283652      -0.20647468       0.00000000
Si       0.18388152       2.23123480      -0.64724231       0.00000000
Si       0.93933028      -1.19299816      -1.77794395       0.00000000
Si       0.43201080      -0.24817815       2.33276064       0.00000000
Si      -2.64099998       1.75827909       1.32709512       0.00000000
Si       3.12670263      -1.40322061      -1.04417863       0.00000000
Si      -0.83378737       3.30665826       1.21710775       0.00000000
Si      -1.00695007      -1.97710103       2.90700921       0.00000000
Si       1.03493629       0.32998653      -3.55393010       0.00000000
Si       2.45754200       2.79979491      -0.38928045       0.00000000
