10
Lattice="16.2900001489832 0.0 0.0 0.0 16.2900001489832 0.0 0.0 0.0 29.22087183550747" Properties=species:S:1:pos:R:3:initial_magmoms:R:1 pbc="T T T"
Si      -1.43896087      -1.72892288       0.57424857       0.00000000
Si       2.19919889      -0.58819933       0.46545927       0.00000000
Si      -0.48368268       1.66110272       1.60206352       0.00000000
Si      -0.43201080       0.24817815      -2.33276064       0.00000000
H       -0.83131129      -2.29257317       1.85976239       0.00000000
Si       2.65435778      -2.28384173      -1.13955556       0.00000000
Si      -2.73440685       2.11024897       1.31336131       0.00000000
Si      -2.72494235       0.23534163      -2.53923532       0.00000000
Si       0.30447639       3.66308346       0.71512240       0.00000000
Si       3.50288760       1.40740063       0.19469867       0.00000000
