10
Lattice="16.2900001489832 0.0 0.0 0.0 16.2900001489832 0.0 0.0 0.0 29.22087183550747" Properties=species:S:1:pos:R:3:initial_magmoms:R:1 pbc="T T T"
Si       0.93993301      -2.17044215      -0.13906213       0.00000000
Si       1.99479197       0.93142637       0.88661969       0.00000000
Si      -0.75092014       1.01925879      -2.02807461       0.00000000
Si      -1.71499493      -0.36866225       1.69244368       0.00000000
H        2.91019224      -0.30434119       1.07947745       0.00000000
Si      -0.21911679      -0.44202981       3.49905330       0.00000000
H       -1.37999107       2.49587726       2.13581196       0.00000000
Si       1.22841262       1.35868864       3.10460075       0.00000000
Si      -0.78721426      -3.71429434       0.28306259       0.00000000
Si      -3.71239329       1.12100125       0.16509793       0.00000000
