10
Lattice="16.2900001489832 0.0 0.0 0.0 16.2900001489832 0.0 0.0 0.0 29.22087183550747" Properties=species:S:1:pos:R:3:initial_magmoms:R:1 pbc="T T T"
Si       1.31336497       1.33452568      -1.41198467       0.00000000
Si       1.35122293      -1.35974260       1.40549471       0.00000000
Si      -1.31127985       1.47015622       1.33647502       0.00000000
Si      -1.37878561      -1.34972425      -1.41364442       0.00000000
Si      -2.70694190       0.03754845       2.60980373       0.00000000
Si       2.73611730      -2.66586178      -0.02811048       0.00000000
Si       2.68623731       2.72274320      -0.05531511       0.00000000
Si       0.03759732      -2.80307082      -2.63625154       0.00000000
Si      -2.73357606      -2.70910685      -0.07316906       0.00000000
Si       2.67470399       0.05986575       2.77934322       0.00000000
