10
Lattice="16.2900001489832 0.0 0.0 0.0 16.2900001489832 0.0 0.0 0.0 29.22087183550747" Properties=species:S:1:pos:R:3:initial_magmoms:R:1 pbc="T T T"
Si       0.96896179       0.84396862      -0.83443122       0.00000000
H        2.06185790       1.12508515       0.20188700       0.00000000
Si      -2.41722425      -0.82761346      -0.19350061       0.00000000
Si       2.25095222      -1.58049491       0.78057715       0.00000000
Si      -0.33728445       2.82046692      -0.76640503       0.00000000
Si       1.23328333      -0.50507145       2.64492721       0.00000000
Si       1.17002926      -0.44950626      -2.86349934       0.00000000
Si      -0.30167451       2.95656987       1.57649526       0.00000000
Si      -0.16943229       1.30425886       3.17192564       0.00000000
Si      -2.53508240      -1.00245403       2.08888324       0.00000000
