10
Lattice="16.2900001489832 0.0 0.0 0.0 16.2900001489832 0.0 0.0 0.0 29.22087183550747" Properties=species:S:1:pos:R:3:initial_magmoms:R:1 pbc="T T T"
Si       1.37500633      -1.31408173       1.44351107       0.00000000
Si      -1.35677782      -1.35123922      -1.44216106       0.00000000
Si       1.29134089       1.30181536      -1.54702893       0.00000000
Si      -1.32265027       1.36762696       1.47518649       0.00000000
Si      -2.64318284       2.70454727       0.00791886       0.00000000
Si       2.70440066       2.64852596      -0.13847771       0.00000000
Si      -2.69682581      -2.69843852       0.00122728       0.00000000
Si      -0.02065572      -2.74668951       2.71683978       0.00000000
Si       2.68628618      -2.78423796       0.10703605       0.00000000
Si       2.68695407      -0.23133429      -2.84554311       0.00000000
