10
Lattice="16.2900001489832 0.0 0.0 0.0 16.2900001489832 0.0 0.0 0.0 29.22087183550747" Properties=species:S:1:pos:R:3:initial_magmoms:R:1 pbc="T T T"
Si       1.26096004       1.30709332       1.47542026       0.00000000
Si      -1.36995643       1.38135943      -1.30105932       0.00000000
Si      -1.28837611      -1.20594871       1.58371281       0.00000000
Si       1.38344455      -1.35814618      -1.40184211       0.00000000
Si       0.44331606      -2.05548851       2.97433410       0.00000000
Si       2.25969995      -0.29278017       2.92214563       0.00000000
Si      -2.64360638      -2.63904518       0.21182210       0.00000000
Si       0.00788436       2.67766877      -2.65828115       0.00000000
Si       2.71085150      -2.65706192       0.11621141       0.00000000
Si       2.76939777       2.65199573       0.18762722       0.00000000
