10
Lattice="16.2900001489832 0.0 0.0 0.0 16.2900001489832 0.0 0.0 0.0 29.22087183550747" Properties=species:S:1:pos:R:3:initial_magmoms:R:1 pbc="T T T"
Si      -1.28876707      -1.55567872       1.28603979       0.00000000
Si      -1.32196609       1.29267667      -1.53029706       0.00000000
Si       1.43959618      -1.69013639      -0.91692174       0.00000000
Si       1.81952786       1.38922750       0.79942461       0.00000000
H       -1.43426935       1.64410085       1.45017343       0.00000000
Si       1.98006581      -2.21397392       1.36262770       0.00000000
H        2.47858868      -0.94152943       2.04817857       0.00000000
H       -2.04058316      -2.19844955      -1.63671947       0.00000000
Si      -1.70654042      -3.08641746      -0.44488777       0.00000000
Si       3.66696048       0.59350987      -0.57778430       0.00000000
