10
Lattice="16.2900001489832 0.0 0.0 0.0 16.2900001489832 0.0 0.0 0.0 29.22087183550747" Properties=species:S:1:pos:R:3:initial_magmoms:R:1 pbc="T T T"
Si      -1.12837573       1.49095855      -1.41475773       0.00000000
Si       1.70230502       0.68207860       1.46653712       0.00000000
Si       1.43246116      -1.34688979      -1.37896216       0.00000000
Si      -1.97227919      -0.56457883       1.31745223       0.00000000
Si       0.16490367       1.17110440       3.21251343       0.00000000
Si      -2.60858288      -2.47076948       0.01084094       0.00000000
Si      -2.49588866       0.12606831      -2.77399581       0.00000000
Si       2.79441921       2.52656273       0.16328623       0.00000000
Si      -2.57136023       2.82154759      -0.12179259       0.00000000
Si       2.43120107      -2.94676329       0.06776320       0.00000000
