10
Lattice="16.2900001489832 0.0 0.0 0.0 16.2900001489832 0.0 0.0 0.0 29.22087183550747" Properties=species:S:1:pos:R:3:initial_magmoms:R:1 pbc="T T T"
Si       2.15316335      -0.74626120       0.19367594       0.00000000
Si      -0.08044002       2.19180323      -0.81377206       0.00000000
Si      -0.88459588      -0.91267984      -2.00522389       0.00000000
Si      -0.83274481      -0.69835231       2.16193542       0.00000000
Si      -2.42620004       2.33430815      -0.86572677       0.00000000
Si      -2.81839809      -1.73358182       1.19939991       0.00000000
Si      -2.94902760       0.28978281      -2.04283115       0.00000000
Si       2.15032889      -3.03971403       0.16670507       0.00000000
Si       0.44543376      -0.13119966      -3.79234319       0.00000000
Si       0.27995994       2.14050602      -3.17829579       0.00000000
