10
Lattice="16.2900001489832 0.0 0.0 0.0 16.2900001489832 0.0 0.0 0.0 29.22087183550747" Properties=species:S:1:pos:R:3:initial_magmoms:R:1 pbc="T T T"
Si       1.56439387       0.16107552       1.71956064       0.00000000
Si       1.32421411      -0.34176420      -1.92077557       0.00000000
Si      -1.17576334       2.05224126      -0.05549044       0.00000000
Si      -1.11843883      -2.08466390       0.22324746       0.00000000
H        1.47369115      -1.84883357      -1.90499630       0.00000000
Si       3.52898418       0.65821375       0.44614427       0.00000000
Si      -3.35855820      -1.35496963       0.53190753       0.00000000
Si      -0.01671354       0.32382891      -3.69360586       0.00000000
Si      -3.31822416      -0.22617036      -1.70547618       0.00000000
Si       0.20352726      -3.37734057       1.75354452       0.00000000
