10
Lattice="16.2900001489832 0.0 0.0 0.0 16.2900001489832 0.0 0.0 0.0 29.22087183550747" Properties=species:S:1:pos:R:3:initial_magmoms:R:1 pbc="T T T"
Si      -1.12060540      -1.74219923      -1.05481503       0.00000000
Si       1.32502861       1.03771373      -1.63978766       0.00000000
Si       1.66605977      -0.76794319       1.48602744       0.00000000
Si      -1.58464234       1.58409663       0.78747328       0.00000000
H        2.93021265      -0.01588275       1.08836059       0.00000000
Si       1.55259991       3.12481299      -0.54134587       0.00000000
Si       0.53004402      -3.37605366      -1.01796751       0.00000000
Si       1.83153359      -3.03964887       0.87198004       0.00000000
Si      -0.61212934       3.60090453       0.12120818       0.00000000
Si       0.06574644       0.89076327      -3.63270957       0.00000000
