10
Lattice="16.2900001489832 0.0 0.0 0.0 16.2900001489832 0.0 0.0 0.0 29.22087183550747" Properties=species:S:1:pos:R:3:initial_magmoms:R:1 pbc="T T T"
Si       0.08044002      -2.19180323       0.81377206       0.00000000
Si      -2.34576002       0.14250492      -0.05195471       0.00000000
Si       1.60840945       1.45830688       0.90435676       0.00000000
Si       0.36039996      -0.05129721      -2.36452373       0.00000000
H        1.62455284       0.70076323      -2.76219057       0.00000000
H       -2.86391235       0.23583033       1.68394040       0.00000000
Si      -0.80415586      -3.10448307      -1.19145183       0.00000000
Si      -2.65051334       2.33895732      -0.72646009       0.00000000
Si      -2.86858758      -1.90202042      -1.22905909       0.00000000
Si       1.23621553       3.58365342      -0.11954259       0.00000000
