10
Lattice="16.2900001489832 0.0 0.0 0.0 16.2900001489832 0.0 0.0 0.0 29.22087183550747" Properties=species:S:1:pos:R:3:initial_magmoms:R:1 pbc="T T T"
Si      -1.38953701       1.31414526      -1.30228660       0.00000000
Si      -1.39338145      -1.37152027       1.28504920       0.00000000
Si       1.30898296       1.45135431       1.30585446       0.00000000
Si       1.14127741      -1.20288619      -1.69751058       0.00000000
Si       1.76873564       0.72213245      -3.03017227       0.00000000
Si      -2.34022142      -0.34598331      -2.72043219       0.00000000
Si       0.12349449       2.47461392      -2.67442715       0.00000000
Si       2.61641837      -2.60438006      -0.33207475       0.00000000
Si       2.65792529       0.03363885       2.59133906       0.00000000
Si      -0.70218046      -2.20532393      -2.90969461       0.00000000
