10
Lattice="16.2900001489832 0.0 0.0 0.0 16.2900001489832 0.0 0.0 0.0 29.22087183550747" Properties=species:S:1:pos:R:3:initial_magmoms:R:1 pbc="T T T"
Si       1.37335616       1.36632376       1.30737103       0.00000000
Si       1.42927647      -1.35102745      -1.29205929       0.00000000
Si      -1.35793441       1.39505932      -1.34974129       0.00000000
Si      -1.36946773      -1.26781813       1.48491704       0.00000000
Si       0.04924467      -2.64319913      -2.71331574       0.00000000
Si       0.01436778       2.75416662       2.62482325       0.00000000
Si      -2.69294879      -2.68742648       0.11106853       0.00000000
Si       2.73559602       0.06784785      -2.66717306       0.00000000
Si      -2.73080676       0.00684180      -2.70641085       0.00000000
Si      -0.00278559       2.81846325      -2.62565020       0.00000000
