10
Lattice="16.2900001489832 0.0 0.0 0.0 16.2900001489832 0.0 0.0 0.0 29.22087183550747" Properties=species:S:1:pos:R:3:initial_magmoms:R:1 pbc="T T T"
Si      -2.11054871       0.79216642       0.66386899       0.00000000
Si       0.06918363      -1.89106213      -1.40213431       0.00000000
Si       0.47333853       1.67655053      -1.59478752       0.00000000
Si       1.71242111       0.30512799       1.66135267       0.00000000
H       -2.13767156      -2.65960316       0.33133547       0.00000000
Si       1.91624159       2.67553478       1.36283224       0.00000000
Si       1.77963365      -1.25220742      -2.91148001       0.00000000
Si       0.38711556       3.67447017      -0.21813381       0.00000000
Si      -1.86230540       3.17870031       0.57012843       0.00000000
Si      -3.51528429       0.48109257      -1.29837100       0.00000000
