10
Lattice="16.2900001489832 0.0 0.0 0.0 16.2900001489832 0.0 0.0 0.0 29.22087183550747" Properties=species:S:1:pos:R:3:initial_magmoms:R:1 pbc="T T T"
Si      -1.31336497      -1.33452568       1.41198467       0.00000000
Si       1.39315339      -1.31611798      -1.36635336       0.00000000
Si      -1.31269708       1.21837798      -1.54059449       0.00000000
Si       1.37287234       1.38821752       1.35666956       0.00000000
Si       0.63346924       2.04320585      -2.70800140       0.00000000
Si       2.47704113       0.34935534      -2.65940411       0.00000000
Si      -2.69215058      -2.68424993      -0.00165975       0.00000000
Si      -2.62464482       0.13563054       2.74845969       0.00000000
Si       2.78005143      -2.65004093      -0.00690489       0.00000000
Si       2.73080676      -0.00684180       2.70641085       0.00000000
