10
Lattice="16.2900001489832 0.0 0.0 0.0 16.2900001489832 0.0 0.0 0.0 29.22087183550747" Properties=species:S:1:pos:R:3:initial_magmoms:R:1 pbc="T T T"
Si       1.76972933       1.14728842       1.04566890       0.00000000
Si      -1.28044288       1.50006466      -1.31803665       0.00000000
Si      -1.28601406      -1.38617313       1.50469957       0.00000000
Si       1.42788367      -1.53125024      -1.24229615       0.00000000
H       -0.37061379      -2.62194068       1.69755733       0.00000000
H        0.56624041       0.00734679       3.15246454       0.00000000
H        0.09412362       0.62415136       3.24564990       0.00000000
H       -1.04669767       2.50595588       2.24246815       0.00000000
Si       2.34815465      -2.54321111       0.71716786       0.00000000
Si      -2.38832579      -0.11473047      -2.68554423       0.00000000
