10
Lattice="16.2900001489832 0.0 0.0 0.0 16.2900001489832 0.0 0.0 0.0 29.22087183550747" Properties=species:S:1:pos:R:3:initial_magmoms:R:1 pbc="T T T"
Si       1.65575406       1.60552612      -0.02182799       0.00000000
Si      -1.70137649       0.19847736       1.60013494       0.00000000
Si      -0.79423525       0.24083136      -2.22204276       0.00000000
Si       1.31079115      -1.68236606       1.07699367       0.00000000
H       -1.55709595      -2.15498783      -1.11109443       0.00000000
H       -1.08497917      -2.77179240      -1.20427979       0.00000000
Si       1.35309628       2.20172384       2.21275052       0.00000000
H       -2.69791724      -0.27318330      -2.11427618       0.00000000
Si       3.50094909       0.35434008      -0.69674247       0.00000000
Si      -0.46442790       1.26770410       3.42158877       0.00000000
