10
Lattice="16.2900001489832 0.0 0.0 0.0 16.2900001489832 0.0 0.0 0.0 29.22087183550747" Properties=species:S:1:pos:R:3:initial_magmoms:R:1 pbc="T T T"
Si      -0.74095066      -2.10823553      -0.82578184       0.00000000
Si       1.07391826       1.31856148      -1.73119055       0.00000000
Si       0.68165506       0.36157284       2.33886780       0.00000000
Si      -1.59200542      -0.20698726       2.08090595       0.00000000
Si       1.99739837      -1.48966350       1.52734575       0.00000000
Si      -2.67292838       0.92400139      -1.56317054       0.00000000
H        2.33240222       1.37487601       1.97071404       0.00000000
H       -1.78109975       2.49859280       1.50221580       0.00000000
Si      -0.81666658       1.05656941      -3.24091612       0.00000000
Si      -3.04491054      -1.45504888      -1.38521543       0.00000000
