10
Lattice="16.2900001489832 0.0 0.0 0.0 16.2900001489832 0.0 0.0 0.0 29.22087183550747" Properties=species:S:1:pos:R:3:initial_magmoms:R:1 pbc="T T T"
Si      -2.29757420      -0.56853730       0.16483494       0.00000000
Si       0.73634059      -0.03044601       2.36417308       0.00000000
Si       1.17610543      -2.24109677      -0.20822793       0.00000000
Si       0.22400379       1.73794754      -1.89433068       0.00000000
H       -1.10889289       2.28307610       1.12222758       0.00000000
H       -2.36714879      -1.60492339       1.28390667       0.00000000
Si       2.57168603      -1.35651718       1.58420957       0.00000000
Si      -0.33300018       0.33787089      -3.81113221       0.00000000
Si       2.55585215       2.46400913      -1.85555458       0.00000000
Si      -3.77654331       1.06619680       1.06735079       0.00000000
