10
Lattice="16.2900001489832 0.0 0.0 0.0 16.2900001489832 0.0 0.0 0.0 29.22087183550747" Properties=species:S:1:pos:R:3:initial_magmoms:R:1 pbc="T T T"
Si       2.10085616      -0.48563748      -0.91961006       0.00000000
Si       0.88160341       1.73265329       1.33682567       0.00000000
Si      -1.81522730       0.89919172      -1.22157855       0.00000000
Si      -0.87718393      -1.63668890       1.54087501       0.00000000
H       -1.81946270      -2.27151020      -1.07316574       0.00000000
Si      -2.85516462      -1.17229357      -1.24483836       0.00000000
Si      -2.63259434       1.99045883       0.78265183       0.00000000
Si      -2.61498485      -0.00338832       2.16143867       0.00000000
Si       2.45568494       0.05462037       2.41010829       0.00000000
Si       1.27500365      -2.12662694       2.43713759       0.00000000
