10
Lattice="16.2900001489832 0.0 0.0 0.0 16.2900001489832 0.0 0.0 0.0 29.22087183550747" Properties=species:S:1:pos:R:3:initial_magmoms:R:1 pbc="T T T"
Si      -1.14127741       1.20288619       1.69751058       0.00000000
Si      -1.84345787      -1.00243774      -1.21218404       0.00000000
Si       0.62745823       1.92501864      -1.33266169       0.00000000
Si       1.47514096      -1.40149387       1.36543582       0.00000000
Si      -2.53081442       2.51703145       0.39522398       0.00000000
Si      -3.48149883       0.85690288      -1.02292162       0.00000000
Si       2.62195860       2.68923630       0.01447602       0.00000000
Si      -2.53465886      -0.16863408       2.98255978       0.00000000
Si      -1.01778292       3.67750011      -0.97691657       0.00000000
Si      -2.72135855      -2.86915773      -0.01532927       0.00000000
