10
Lattice="16.2900001489832 0.0 0.0 0.0 16.2900001489832 0.0 0.0 0.0 29.22087183550747" Properties=species:S:1:pos:R:3:initial_magmoms:R:1 pbc="T T T"
Si       1.24274782       1.80489944       0.76368749       0.00000000
Si      -1.37163430      -0.77986747       1.78218097       0.00000000
Si       0.55493515      -0.83310319      -2.20164659       0.00000000
H        0.88104466      -2.92623789       1.98818812       0.00000000
Si      -2.42025419      -2.69723306       0.84717152       0.00000000
Si       1.33835383       3.32788413      -1.01229866       0.00000000
Si      -3.13589996      -1.82887832      -1.19790964       0.00000000
Si      -3.02192046       0.86152924       2.20728622       0.00000000
Si       0.30341754       2.99789760       2.54163143       0.00000000
Si       1.29920896       0.91355950      -3.71403125       0.00000000
