10
Lattice="16.2900001489832 0.0 0.0 0.0 16.2900001489832 0.0 0.0 0.0 29.22087183550747" Properties=species:S:1:pos:R:3:initial_magmoms:R:1 pbc="T T T"
Si      -1.33295858      -1.27195905      -1.45829683       0.00000000
Si      -1.45430280       1.31458346       1.33270552       0.00000000
Si       0.89966739      -1.78258539       1.33568605       0.00000000
Si       1.43476131       1.46427228      -1.27516963       0.00000000
Si       0.20102675       2.55886255       2.46305651       0.00000000
Si      -2.63508346      -2.63595334       0.00610716       0.00000000
Si       2.66535679      -2.65887337      -0.00248377       0.00000000
Si      -2.68190092       0.14575641      -2.74378142       0.00000000
Si       2.65269946       0.10457691      -2.82007712       0.00000000
Si       0.05542998       2.78827462      -2.71330405       0.00000000
