10
Lattice="16.2900001489832 0.0 0.0 0.0 16.2900001489832 0.0 0.0 0.0 29.22087183550747" Properties=species:S:1:pos:R:3:initial_magmoms:R:1 pbc="T T T"
Si      -1.13394691      -2.07562295       0.05625018       0.00000000
Si      -1.45326349       1.88704991       0.55601475       0.00000000
Si       0.71970850      -0.51034941       2.46504353       0.00000000
Si       0.30874437      -0.49891383      -2.55717694       0.00000000
H        1.84803536       1.65804509       1.69703135       0.00000000
Si      -1.09833697      -1.93952000       2.39915046       0.00000000
Si      -1.38033316       1.19335654      -2.99326923       0.00000000
Si      -2.16890926       2.75540466      -1.48906641       0.00000000
Si      -3.42039504       0.91670347       1.46875790       0.00000000
Si       0.17229933      -4.05212125      -0.01177601       0.00000000
