10
Lattice="16.2900001489832 0.0 0.0 0.0 16.2900001489832 0.0 0.0 0.0 29.22087183550747" Properties=species:S:1:pos:R:3:initial_magmoms:R:1 pbc="T T T"
Si      -1.61877641      -1.19006596       1.19945835       0.00000000
Si       1.26159372      -1.40414914      -1.41168954       0.00000000
Si       1.72805299       0.66002194       1.47089103       0.00000000
Si      -1.38745841       1.65192005      -1.00955190       0.00000000
Si      -2.53152141       0.68261617       2.28849102       0.00000000
Si       2.43464804       0.32381262      -2.51945279       0.00000000
Si      -1.95397574       2.76776877       1.09096125       0.00000000
Si       3.03429923      -1.31647636       1.40286484       0.00000000
Si      -0.35188681      -2.98805844       2.04379544       0.00000000
Si      -0.39373582      -2.64842822      -2.54204052       0.00000000
