10
Lattice="16.2900001489832 0.0 0.0 0.0 16.2900001489832 0.0 0.0 0.0 29.22087183550747" Properties=species:S:1:pos:R:3:initial_magmoms:R:1 pbc="T T T"
Si      -1.50490279      -1.08655930       1.44374484       0.00000000
Si      -1.04570398       2.11157498       0.25273132       0.00000000
Si       1.58438170      -0.08232966       1.76534975       0.00000000
Si       0.46446048      -0.75539989      -2.29947807       0.00000000
Si      -1.35358498      -2.18457047      -2.36537113       0.00000000
Si      -3.50143779      -0.33718671       0.54412185       0.00000000
Si      -0.72861913       2.40888377       2.58750820       0.00000000
Si      -0.66642391      -3.26544456       1.44164093       0.00000000
Si       2.57852783       2.06136920       1.53304382       0.00000000
Si       2.79534774      -1.04308129      -2.17783158       0.00000000
