10
Lattice="16.2900001489832 0.0 0.0 0.0 16.2900001489832 0.0 0.0 0.0 29.22087183550747" Properties=species:S:1:pos:R:3:initial_magmoms:R:1 pbc="T T T"
Si       0.53870053      -1.00543510       1.98614266       0.00000000
Si      -2.31327125       0.33563916       0.13725043       0.00000000
Si       0.26901958      -1.44384787      -1.82948956       0.00000000
Si       1.04530325       2.05159520      -0.68572620       0.00000000
H        0.33813805       2.04845123       1.54148865       0.00000000
Si       2.66878095      -1.18718263       0.84720074       0.00000000
Si      -1.72751542      -0.69447529      -2.72911255       0.00000000
Si      -2.33314505       2.56806965      -0.50633927       0.00000000
Si       0.72821839       1.75428641      -3.02050308       0.00000000
Si      -1.67186878       1.70401547      -2.67739160       0.00000000
