10
Lattice="16.2900001489832 0.0 0.0 0.0 16.2900001489832 0.0 0.0 0.0 29.22087183550747" Properties=species:S:1:pos:R:3:initial_magmoms:R:1 pbc="T T T"
Si       1.22270298      -1.24849819       1.54185099       0.00000000
Si      -0.74894742      -1.86750191      -1.26307978       0.00000000
Si       1.70037465       0.94923460      -1.36145302       0.00000000
Si      -1.49769447       1.48212937       1.14019257       0.00000000
Si      -0.58538767      -0.93607228      -3.44422910       0.00000000
Si       2.55616981      -2.56761353       0.17756647       0.00000000
Si       3.41323559      -0.86097538      -1.20648421       0.00000000
Si       0.59529362       1.24517503      -3.47125840       0.00000000
Si       2.67366958       0.13198158       2.71348522       0.00000000
Si      -0.12073985       2.79497307       2.60384851       0.00000000
