10
Lattice="16.2900001489832 0.0 0.0 0.0 16.2900001489832 0.0 0.0 0.0 29.22087183550747" Properties=species:S:1:pos:R:3:initial_magmoms:R:1 pbc="T T T"
H        0.60764959      -0.56365030       1.28551381       0.00000000
Si       1.43896087       1.72892288      -0.57424857       0.00000000
Si       0.24133635      -1.80617006      -1.46209554       0.00000000
Si      -2.26018051       0.24946506       0.61413506       0.00000000
Si      -1.05391414      -3.24845409      -0.14023096       0.00000000
Si      -2.18484414      -1.16061364       2.53058594       0.00000000
Si       2.53703720      -2.37421865      -1.10583467       0.00000000
Si       1.00695007       1.97710103      -2.90700921       0.00000000
Si       0.95527819       3.39002559       1.02781495       0.00000000
Si      -0.73682929      -2.95114530       2.19454592       0.00000000
