10
Lattice="16.2900001489832 0.0 0.0 0.0 16.2900001489832 0.0 0.0 0.0 29.22087183550747" Properties=species:S:1:pos:R:3:initial_magmoms:R:1 pbc="T T T"
Si      -1.33544770       1.32517522       1.45975787       0.00000000
Si       1.27774526       1.40049432      -1.44506270       0.00000000
Si       1.38970643      -1.34395759       1.41826424       0.00000000
Si      -1.37695462      -1.31284369      -1.46365594       0.00000000
Si       2.65021035       2.70171119       0.09797758       0.00000000
Si      -2.69162279      -2.70664868      -0.00230845       0.00000000
Si       0.12073985      -2.79497307      -2.60384851       0.00000000
Si      -2.68439003       2.74289068       0.17427328       0.00000000
Si       2.79440943      -2.66299148       0.10963671       0.00000000
Si       2.74255836      -0.00979029      -2.73522555       0.00000000
