10
Lattice="16.2900001489832 0.0 0.0 0.0 16.2900001489832 0.0 0.0 0.0 29.07865470619324" Properties=species:S:1:pos:R:3:initial_magmoms:R:1 pbc="T T T"
Si       0.61924807       0.58466440      -1.25564539       0.00000000
Si      -1.74907361       1.00489753      -1.90104613       0.00000000
H       -2.03854691       1.50693904       1.15474246       0.00000000
Si      -2.27237357      -1.63183447       0.71748673       0.00000000
Si       2.99661069      -0.10438632      -0.25248996       0.00000000
Si      -2.60599277       0.34236693       1.94425701       0.00000000
H       -0.01542663      -3.01814607      -1.27064997       0.00000000
Si      -2.88344406      -0.97096546      -1.45692784       0.00000000
Si       0.99316873      -0.71521246      -3.22333980       0.00000000
Si      -0.56172808      -2.95570650       1.73535596       0.00000000
