10
Lattice="16.2900001489832 0.0 0.0 0.0 16.2900001489832 0.0 0.0 0.0 29.07865470619324" Properties=species:S:1:pos:R:3:initial_magmoms:R:1 pbc="T T T"
Si      -1.66635299      -1.45497394      -0.69204290       0.00000000
Si       0.68929507       1.49029066      -1.65027181       0.00000000
Si      -0.67803868       0.77768461       2.13856058       0.00000000
Si       1.91088218      -1.40258530       0.37970907       0.00000000
Si      -0.40817853      -1.56403549       2.74839813       0.00000000
Si       1.41661099       3.13085658      -0.15978721       0.00000000
Si      -1.37459908      -3.05827811       1.01353651       0.00000000
Si      -0.26179659       3.17813016       1.45489233       0.00000000
Si       2.13425066       0.10220346      -2.90582996       0.00000000
Si       0.83235385      -3.49975503       0.40547276       0.00000000
