10
Lattice="16.2900001489832 0.0 0.0 0.0 16.2900001489832 0.0 0.0 0.0 29.07865470619324" Properties=species:S:1:pos:R:3:initial_magmoms:R:1 pbc="T T T"
H        0.90870508       1.13922487       0.41402189       0.00000000
Si       0.14618646      -1.78478129       1.45986478       0.00000000
Si      -2.07241382       0.85797802       0.63440901       0.00000000
Si       0.63037414      -0.73109521      -2.12913910       0.00000000
H        2.30795093       0.83447155       1.55974996       0.00000000
Si      -0.01707192      -0.46835379       3.49595218       0.00000000
H       -1.09620298       3.02075247      -1.60054731       0.00000000
Si       2.74830222       0.30429720      -2.32995629       0.00000000
Si      -0.77993263       0.51504093      -3.52994513       0.00000000
Si      -1.38613240      -3.37467390       0.48933560       0.00000000
