10
Lattice="16.2900001489832 0.0 0.0 0.0 16.2900001489832 0.0 0.0 0.0 29.07865470619324" Properties=species:S:1:pos:R:3:initial_magmoms:R:1 pbc="T T T"
H        0.32643531       1.45741581       0.64051553       0.00000000
Si       1.64524115      -0.96883310       1.31612899       0.00000000
Si       0.26873613       0.33026672      -2.28991498       0.00000000
Si      -2.28841922      -0.24134287       0.40544368       0.00000000
H       -1.62999370       1.30714056       2.21931201       0.00000000
Si       1.26351757       2.78112494      -0.14181660       0.00000000
Si       0.21888873       2.60548615      -2.13922939       0.00000000
Si       0.24063588      -2.27775090       2.66758855       0.00000000
Si       2.93765718      -2.13661434      -0.27563657       0.00000000
Si      -3.27314973       1.77546178      -0.28534884       0.00000000
