10
Lattice="16.2900001489832 0.0 0.0 0.0 16.2900001489832 0.0 0.0 0.0 29.07865470619324" Properties=species:S:1:pos:R:3:initial_magmoms:R:1 pbc="T T T"
Si       1.32623407       1.35842800       1.37742970       0.00000000
Si      -1.32470281       1.38533256      -1.35997960       0.00000000
Si      -1.51742980      -1.31411431       1.23308326       0.00000000
Si       1.41320638      -1.45442008      -1.21743604       0.00000000
Si      -0.13071096      -2.63318078       2.66184842       0.00000000
Si       2.67551849       2.63456543      -0.04966634       0.00000000
Si      -2.45426771       0.03137454      -2.84659675       0.00000000
Si       0.09161496      -2.72466542      -2.63807371       0.00000000
Si       0.09055611       2.40860684      -2.95191963       0.00000000
Si       2.68558571       0.02174715       2.74139890       0.00000000
