10
Lattice="16.2900001489832 0.0 0.0 0.0 16.2900001489832 0.0 0.0 0.0 29.07865470619324" Properties=species:S:1:pos:R:3:initial_magmoms:R:1 pbc="T T T"
Si      -1.35935164       1.33668085      -1.36396919       0.00000000
Si      -1.43071813      -1.32439330       1.30384907       0.00000000
Si       1.31641120       1.38340057       1.37805780       0.00000000
Si       1.37916028      -1.37424070      -1.33004022       0.00000000
Si      -0.05787837      -2.63173097       2.70139830       0.00000000
Si       2.65139300       2.73044837       0.02228879       0.00000000
Si      -0.01006722       2.61281828      -2.79106524       0.00000000
Si      -2.71168229       2.70392825      -0.00340511       0.00000000
Si       0.04585635      -2.81224047      -2.60716688       0.00000000
Si      -2.75149506       0.05609817       2.67199978       0.00000000
