10
Lattice="16.2900001489832 0.0 0.0 0.0 16.2900001489832 0.0 0.0 0.0 29.07865470619324" Properties=species:S:1:pos:R:3:initial_magmoms:R:1 pbc="T T T"
Si       1.34928442       1.27613743      -1.42709604       0.00000000
Si       1.35935164      -1.33668085       1.36396919       0.00000000
Si      -1.32623407      -1.35842800      -1.37742970       0.00000000
Si      -1.35233065       1.36724741       1.36056408       0.00000000
Si      -0.07136649      -2.66107415       2.66781827       0.00000000
Si       2.66409920       2.68375635      -0.02772941       0.00000000
Si      -2.65093688       0.02690456      -2.73740930       0.00000000
Si       0.08697231      -2.81284808      -2.59486574       0.00000000
Si       2.67576284       0.04671972       2.74202700       0.00000000
Si      -0.01992267       2.50081965      -2.90626905       0.00000000
