10
Lattice="16.2900001489832 0.0 0.0 0.0 16.2900001489832 0.0 0.0 0.0 29.07865470619324" Properties=species:S:1:pos:R:3:initial_magmoms:R:1 pbc="T T T"
Si      -1.37828062      -1.35774675       1.31979290       0.00000000
Si       1.29779173      -1.35538470      -1.41351341       0.00000000
Si      -1.35607735       1.28762058      -1.42956482       0.00000000
Si       1.33408585       1.34284857       1.43445004       0.00000000
Si      -2.67323789       0.11266522       2.60896598       0.00000000
Si       2.69293250      -2.67050899      -0.08136208       0.00000000
Si       2.71953407       2.65627219       0.03954697       0.00000000
Si       0.01534518       2.65004941      -2.73542905       0.00000000
Si      -2.66100410       2.72599339      -0.13448878       0.00000000
Si      -0.06748947      -2.67337603       2.74566473       0.00000000
