10
Lattice="16.2900001489832 0.0 0.0 0.0 16.2900001489832 0.0 0.0 0.0 29.07865470619324" Properties=species:S:1:pos:R:3:initial_magmoms:R:1 pbc="T T T"
Si      -1.69813478      -1.13231791       1.18571122       0.00000000
Si      -0.60129649      -0.71755822      -2.18627865       0.00000000
Si       1.88017553      -1.32152626       0.65275764       0.00000000
Si       0.09314622       2.34916870       0.68288313       0.00000000
Si      -0.98113042      -3.22468698       0.38971213       0.00000000
Si       2.47135592      -0.29219373       2.63190904       0.00000000
Si      -1.42640128      -0.31508118       3.35314691       0.00000000
Si      -1.85914514      -2.69454521      -1.69528557       0.00000000
H       -2.61011414       2.07435233       1.60005298       0.00000000
Si       2.34422876       2.90649278       0.19918878       0.00000000
