10
Lattice="16.2900001489832 0.0 0.0 0.0 16.2900001489832 0.0 0.0 0.0 29.07865470619324" Properties=species:S:1:pos:R:3:initial_magmoms:R:1 pbc="T T T"
Si       0.91417852      -1.01462266       1.88798981       0.00000000
Si      -0.92911645      -1.82724932      -1.17916853       0.00000000
Si       1.78341293       0.92453896      -1.25337725       0.00000000
Si      -1.69868864       1.70010587       0.12646307       0.00000000
H       -2.70728399      -0.60282775       2.07915289       0.00000000
Si       0.44178480       2.24090129      -2.63976027       0.00000000
Si      -2.31265874      -0.62441200      -2.58174836       0.00000000
Si       3.06210138      -0.06902073       1.83570639       0.00000000
Si       3.07447200       1.89495056       0.46758477       0.00000000
Si      -3.45418050       0.81989200      -1.16916547       0.00000000
