10
Lattice="16.2900001489832 0.0 0.0 0.0 16.2900001489832 0.0 0.0 0.0 29.07865470619324" Properties=species:S:1:pos:R:3:initial_magmoms:R:1 pbc="T T T"
Si       1.53355690      -1.28014966      -1.16796743       0.00000000
Si      -1.34227972      -1.40232466       1.29298529       0.00000000
Si       1.40322061       1.32504490       1.32953716       0.00000000
Si      -1.34291503       1.34162812      -1.37746169       0.00000000
H        0.75531844      -2.17924364      -2.26969078       0.00000000
Si      -2.69236235      -0.01674612       2.61740170       0.00000000
Si       0.03655476       2.71842635       2.63066156       0.00000000
Si       0.05271444      -2.72940581       2.62807356       0.00000000
Si      -2.68091048      -0.05178591      -2.68187477       0.00000000
Si       2.76084552       2.65554695      -0.04122772       0.00000000
