10
Lattice="16.2900001489832 0.0 0.0 0.0 16.2900001489832 0.0 0.0 0.0 29.07865470619324" Properties=species:S:1:pos:R:3:initial_magmoms:R:1 pbc="T T T"
Si       1.01990062       1.61156483       1.32918531       0.00000000
Si       0.50308407       1.31425115      -1.85283372       0.00000000
Si       1.32590827      -1.91140346      -0.21230326       0.00000000
Si      -2.11097225      -0.89479342       0.47723888       0.00000000
Si       2.04087638       2.56386683      -0.59553085       0.00000000
Si      -2.63090018      -1.06065820      -1.84349947       0.00000000
Si      -1.31895244       2.71982729      -1.71683285       0.00000000
Si       0.83080630      -2.81009019       1.89203175       0.00000000
Si       2.67187279       0.24954651       2.31178213       0.00000000
Si      -1.46307007      -2.88336261       1.51243899       0.00000000
