10
Lattice="16.2900001489832 0.0 0.0 0.0 16.2900001489832 0.0 0.0 0.0 29.07865470619324" Properties=species:S:1:pos:R:3:initial_magmoms:R:1 pbc="T T T"
Si       1.60497226      -0.30706650       1.61241140       0.00000000
Si       1.62541621       0.94177378      -1.37992756       0.00000000
Si      -1.14784228      -1.85644100      -0.88372940       0.00000000
Si      -1.27904194       1.54412911       1.27873384       0.00000000
H        2.58118310       1.85570795      -0.62254492       0.00000000
Si       0.31278429      -1.82234603       2.76834609       0.00000000
Si       0.17632296       2.29991996      -2.57776458       0.00000000
Si       0.32423616       3.24201954       1.36559178       0.00000000
Si      -2.51517602      -0.65783908      -2.39596483       0.00000000
Si      -2.73854451      -2.16262784       0.88957420       0.00000000
