10
Lattice="16.2900001489832 0.0 0.0 0.0 16.2900001489832 0.0 0.0 0.0 29.07865470619324" Properties=species:S:1:pos:R:3:initial_magmoms:R:1 pbc="T T T"
Si       1.14784228       1.85644100       0.88372940       0.00000000
Si      -1.36733374       1.19860192      -1.51223544       0.00000000
Si      -1.59070222      -0.30618684       1.77330360       0.00000000
Si       1.38725641      -1.59917628      -1.23723860       0.00000000
H        0.36639468      -3.25576830       0.84112917       0.00000000
Si      -2.81228934       2.58668912      -0.25667729       0.00000000
Si      -0.00917127       2.55463040      -2.87384344       0.00000000
Si       2.62932005      -0.27000675      -2.79995458       0.00000000
Si      -3.50158440       1.09639846       1.39359453       0.00000000
Si       1.46062657       0.03409497       3.65207548       0.00000000
