10
Lattice="16.2900001489832 0.0 0.0 0.0 16.2900001489832 0.0 0.0 0.0 29.07865470619324" Properties=species:S:1:pos:R:3:initial_magmoms:R:1 pbc="T T T"
H       -0.93708226      -1.32370912       0.78233213       0.00000000
Si      -1.04462884      -0.17563878      -1.99741279       0.00000000
Si      -1.43914006       1.22735377       1.26937051       0.00000000
Si       2.30290103       0.01330893      -0.29180430       0.00000000
H       -2.75530692       0.49875093       1.17567909       0.00000000
Si      -1.26351757      -2.78112494       0.14181660       0.00000000
Si      -0.99478144      -2.45085822      -2.14809838       0.00000000
Si       0.24755913       1.33964074      -3.15334747       0.00000000
Si      -0.60255082       1.10299591       3.38245819       0.00000000
Si       2.46615941      -1.30311856      -2.32789170       0.00000000
