10
Lattice="16.2900001489832 0.0 0.0 0.0 16.2900001489832 0.0 0.0 0.0 29.07865470619324" Properties=species:S:1:pos:R:3:initial_magmoms:R:1 pbc="T T T"
Si      -0.50085234       2.28242450      -0.03663910       0.00000000
Si       0.02234988      -0.24861798       2.35624339       0.00000000
Si       2.21500019      -0.56156518      -0.67587517       0.00000000
Si      -2.10607385      -1.10482039      -0.47915807       0.00000000
H       -0.23296329      -0.14229315      -2.51571073       0.00000000
H       -0.24622335      -2.57139281      -0.32957747       0.00000000
H       -1.42203556       1.16393680      -2.47031895       0.00000000
H        0.43983000       2.94296772      -1.46588406       0.00000000
Si      -2.43719579       2.24099903       1.32441641       0.00000000
Si       1.83016523      -2.30182589      -2.20401663       0.00000000
