10
Lattice="16.2900001489832 0.0 0.0 0.0 16.2900001489832 0.0 0.0 0.0 29.07865470619324" Properties=species:S:1:pos:R:3:initial_magmoms:R:1 pbc="T T T"
Si      -0.93160882      -1.86748073      -1.04924510       0.00000000
Si       2.28841922       0.24134287      -0.40544368       0.00000000
Si      -0.98473051       2.01680465      -0.69079252       0.00000000
Si      -0.31276800       0.37213854       2.34077355       0.00000000
H        0.65842552       1.54848343       1.81386832       0.00000000
H        2.61485453       1.69875868       0.23507184       0.00000000
Si      -2.27623430      -1.26740599       2.41629081       0.00000000
Si      -2.80031619      -2.18091662       0.33777765       0.00000000
H        0.79662988       3.52121874       0.62841881       0.00000000
Si      -2.15462945       2.80351391       1.23043420       0.00000000
