10
Lattice="16.2900001489832 0.0 0.0 0.0 16.2900001489832 0.0 0.0 0.0 29.07865470619324" Properties=species:S:1:pos:R:3:initial_magmoms:R:1 pbc="T T T"
Si       2.20695293      -0.44147692      -0.60806375       0.00000000
Si      -0.29175390       1.60330417      -1.70557941       0.00000000
Si      -1.00862794      -2.12485785      -0.39939532       0.00000000
Si       0.96642055       1.49424262       1.73486162       0.00000000
Si      -0.84222559       0.24314291       2.44156016       0.00000000
H       -3.07931176       0.53906217      -1.11749270       0.00000000
Si       1.59658291      -1.23063458      -2.73438222       0.00000000
Si      -2.54974177       1.95669943      -1.24741613       0.00000000
Si       1.37459908       3.05827811      -1.01353651       0.00000000
Si       0.60781249      -3.18973516      -1.80017228       0.00000000
