10
Lattice="16.2900001489832 0.0 0.0 0.0 16.2900001489832 0.0 0.0 0.0 29.07865470619324" Properties=species:S:1:pos:R:3:initial_magmoms:R:1 pbc="T T T"
Si      -1.12215621       0.42495723       2.04091446       0.00000000
Si       0.98928845      -2.20599997       0.18214869       0.00000000
Si      -1.71042069       0.50707512      -1.65643649       0.00000000
Si       1.85129010       1.60182829      -0.51254037       0.00000000
H       -1.68896676      -2.17373762      -0.48875403       0.00000000
H        1.56834909       2.43967187       2.13213420       0.00000000
Si       0.16838810      -0.57591667       3.66885386       0.00000000
Si       1.36293218      -2.81085582      -2.01922178       0.00000000
Si      -0.57970083       1.84516832      -3.19815768       0.00000000
Si      -3.18849386       1.91699093      -0.48799798       0.00000000
