10
Lattice="16.2900001489832 0.0 0.0 0.0 16.2900001489832 0.0 0.0 0.0 29.07865470619324" Properties=species:S:1:pos:R:3:initial_magmoms:R:1 pbc="T T T"
Si       1.33498180       1.34704781      -1.35576901       0.00000000
Si       1.36870210      -1.31378216       1.37027345       0.00000000
Si      -1.31790988       1.37910653       1.36381798       0.00000000
Si      -1.31641120      -1.38340057      -1.37805780       0.00000000
Si       2.67915116      -0.08469986      -2.61673870       0.00000000
Si      -0.03546333      -2.62632758       2.68573363       0.00000000
Si      -2.68933241       0.01667770       2.66968221       0.00000000
Si      -2.70273908       2.69874315       0.00247169       0.00000000
Si       2.69979059       2.70736056       0.00491429       0.00000000
Si      -0.01166364       2.63703663      -2.76975640       0.00000000
