10
Lattice="16.2900001489832 0.0 0.0 0.0 16.2900001489832 0.0 0.0 0.0 29.07865470619324" Properties=species:S:1:pos:R:3:initial_magmoms:R:1 pbc="T T T"
Si       1.36492282       1.38548080      -1.30758277       0.00000000
Si      -1.32659245       1.36244674       1.37553668       0.00000000
Si       1.37805256      -1.33569856       1.35442558       0.00000000
Si      -1.36480879      -1.36031275      -1.36068331       0.00000000
Si       2.74706418      -0.01164735      -2.55316986       0.00000000
Si      -2.66984957       2.70669755       0.00965411       0.00000000
Si       0.02598255       2.66155796      -2.73733079       0.00000000
Si      -2.69979059      -2.70736056      -0.00491429       0.00000000
Si       0.02371824      -2.66848610       2.73862770       0.00000000
Si      -0.02063943      -2.79206041      -2.62165300       0.00000000
