10
Lattice="16.2900001489832 0.0 0.0 0.0 16.2900001489832 0.0 0.0 0.0 29.07865470619324" Properties=species:S:1:pos:R:3:initial_magmoms:R:1 pbc="T T T"
Si       1.38404728      -1.32133502       1.36085196       0.00000000
Si       1.35433432       1.33278754      -1.38420212       0.00000000
Si      -1.33722982       1.34645485       1.39525201       0.00000000
Si      -1.35480673      -1.35265662      -1.37326855       0.00000000
Si      -0.03140712      -2.64495357       2.68646059       0.00000000
Si       2.68433138      -2.68061238      -0.07162073       0.00000000
Si      -2.70247844       2.69580443       0.01849402       0.00000000
Si      -0.02371824       2.66848610      -2.73862770       0.00000000
Si       0.07732863       2.70041450       2.71487044       0.00000000
Si       2.72129339       2.69937194      -0.04821241       0.00000000
