10
Lattice="16.2900001489832 0.0 0.0 0.0 16.2900001489832 0.0 0.0 0.0 29.07865470619324" Properties=species:S:1:pos:R:3:initial_magmoms:R:1 pbc="T T T"
Si       1.38354229      -1.20283732       1.40257983       0.00000000
Si      -1.14152176       1.44430399       1.41258289       0.00000000
Si      -1.43664769      -1.33288039      -1.25366804       0.00000000
Si       1.32923143       1.44339175      -1.30007757       0.00000000
H       -1.59259186       2.47651985       0.44720063       0.00000000
Si       2.31265874       0.62441200       2.58174836       0.00000000
Si       0.61397011       2.32451786       2.70821143       0.00000000
Si      -0.00830790      -2.68675859      -2.53182031       0.00000000
Si      -0.07835490      -2.48412728       2.73150343       0.00000000
Si       2.64217286       0.06644691      -2.66215084       0.00000000
