10
Lattice="16.2900001489832 0.0 0.0 0.0 16.2900001489832 0.0 0.0 0.0 29.07865470619324" Properties=species:S:1:pos:R:3:initial_magmoms:R:1 pbc="T T T"
Si      -1.31768182      -0.82785781      -0.69323513       0.00000000
Si       0.31421781       1.16010865       1.34372463       0.00000000
H        1.24913350       2.04001301       0.55077880       0.00000000
H        0.74038051       0.22931433      -2.91682170       0.00000000
Si       1.62695562      -0.23058495       2.66700697       0.00000000
Si      -2.68908806       0.87175936      -1.48071418       0.00000000
Si      -2.44496612      -1.68466295       1.20408893       0.00000000
Si      -0.81461404      -2.40528368      -2.40820695       0.00000000
Si       0.63522856       1.75207097      -2.99783483       0.00000000
Si       3.00092754      -1.57923406       1.31435519       0.00000000
