10
Lattice="16.2900001489832 0.0 0.0 0.0 16.2900001489832 0.0 0.0 0.0 29.07865470619324" Properties=species:S:1:pos:R:3:initial_magmoms:R:1 pbc="T T T"
Si       2.16407765      -0.76530421       0.38174458       0.00000000
Si      -1.35853714      -1.82868284      -0.58474267       0.00000000
Si       0.25363530       0.52921323      -2.29439309       0.00000000
Si      -0.50306778       1.57742587       1.71497182       0.00000000
H        1.55499454       2.63459801      -0.50861475       0.00000000
H        0.81461404       2.40528368       2.40820695       0.00000000
Si      -2.09161973      -2.55539603       1.46623301       0.00000000
Si       0.09775629      -3.05675337      -1.99302191       0.00000000
Si       1.94779532      -3.06015798      -0.47104513       0.00000000
Si       3.56617425       0.90355744      -0.63746227       0.00000000
