10
Lattice="16.2900001489832 0.0 0.0 0.0 16.2900001489832 0.0 0.0 0.0 29.07865470619324" Properties=species:S:1:pos:R:3:initial_magmoms:R:1 pbc="T T T"
Si      -1.49151241      -1.24222654       1.30512272       0.00000000
Si       1.24592437       1.48965535       1.34246262       0.00000000
Si      -1.51790221       1.45316575      -1.13621935       0.00000000
Si       1.46862496      -1.56717946      -1.16425118       0.00000000
Si       2.65259846      -0.11380194      -2.54699937       0.00000000
Si      -0.14486697      -2.53221536       2.71911011       0.00000000
Si      -0.23970735       2.68310963      -2.63100760       0.00000000
Si      -0.89164945      -0.83105065      -3.58187961       0.00000000
Si      -2.77762422       0.13378977      -2.57529290       0.00000000
Si       2.58486464       0.21357819       2.77221064       0.00000000
