10
Lattice="16.2900001489832 0.0 0.0 0.0 16.2900001489832 0.0 0.0 0.0 29.07865470619324" Properties=species:S:1:pos:R:3:initial_magmoms:R:1 pbc="T T T"
Si      -1.27819486      -1.22994388       1.49478825       0.00000000
Si       1.48633219       1.40307400       1.14956646       0.00000000
Si       1.02506455      -1.87294277      -0.99649642       0.00000000
Si      -1.45238383       1.30849426      -1.35262270       0.00000000
Si       2.61361649       2.25987914      -0.74775761       0.00000000
Si      -2.53791686      -2.54931986       0.05571470       0.00000000
Si      -0.65194210      -3.51416028      -0.95087201       0.00000000
Si       1.75814714      -1.14622957      -3.04747209       0.00000000
Si       0.23970735      -2.68310963       2.63100760       0.00000000
Si      -2.53687430       0.25536204       2.77434007       0.00000000
