10
Lattice="16.2900001489832 0.0 0.0 0.0 16.2900001489832 0.0 0.0 0.0 29.07865470619324" Properties=species:S:1:pos:R:3:initial_magmoms:R:1 pbc="T T T"
Si      -1.27496944       1.38266263       1.36091012       0.00000000
Si       1.06082110       1.49108887      -1.43939341       0.00000000
Si      -1.57208275      -1.22934115      -1.23107393       0.00000000
Si       1.48900375      -1.23312043       1.35081983       0.00000000
Si       2.18123102      -0.01826109      -2.75133507       0.00000000
H        1.22222242      -2.80220583      -1.86254599       0.00000000
Si       0.09109368      -2.79207345       2.35269579       0.00000000
Si       2.57453678       2.62469369      -0.05751758       0.00000000
Si       2.53838927      -2.07360299      -1.76885457       0.00000000
Si      -2.49311936       2.77229739      -0.03053259       0.00000000
