10
Lattice="16.2900001489832 0.0 0.0 0.0 16.2900001489832 0.0 0.0 0.0 29.07865470619324" Properties=species:S:1:pos:R:3:initial_magmoms:R:1 pbc="T T T"
Si       2.13542354      -0.69882472      -0.65874784       0.00000000
Si      -0.82041328      -1.64496421       1.53040960       0.00000000
Si      -1.85003903       0.00340461      -1.52197679       0.00000000
Si       0.21628233       2.29485377       0.85278971       0.00000000
Si      -3.30633246       1.23147514      -0.11369754       0.00000000
Si       3.44259831       0.56174437       0.76002880       0.00000000
Si      -1.94779532       3.06015798       0.47104513       0.00000000
Si       2.27393741      -0.11179827      -2.90402709       0.00000000
Si      -2.17217378      -0.41920686       3.01778279       0.00000000
Si      -1.92355580      -3.23783301       0.22242263       0.00000000
