10
Lattice="16.2900001489832 0.0 0.0 0.0 16.2900001489832 0.0 0.0 0.0 29.07865470619324" Properties=species:S:1:pos:R:3:initial_magmoms:R:1 pbc="T T T"
Si       0.98758126      -0.90109765       1.93082267       0.00000000
Si       1.79159051       0.51943923      -1.45396181       0.00000000
Si      -1.20793120       2.03903561       0.53711183       0.00000000
Si      -0.67202767      -2.13322439      -1.06329009       0.00000000
H       -2.68320737      -0.40218381      -0.93444257       0.00000000
Si      -2.78835933       1.12057282      -1.01545570       0.00000000
Si       2.41507397      -2.26313714       0.71126389       0.00000000
H       -2.17445438       1.40851486       2.53315793       0.00000000
Si       3.58265973      -0.78752377      -0.63757858       0.00000000
Si       1.29474550      -3.37835055      -1.01109390       0.00000000
