10
Lattice="16.2900001489832 0.0 0.0 0.0 16.2900001489832 0.0 0.0 0.0 29.07865470619324" Properties=species:S:1:pos:R:3:initial_magmoms:R:1 pbc="T T T"
Si       1.40359528       1.28710549      -1.36359699       0.00000000
Si      -1.32568021      -1.38227167      -1.35186375       0.00000000
Si       1.37336104      -1.35713620       1.33404144       0.00000000
Si      -1.37016820       1.38735415       1.31958935       0.00000000
Si       2.68162724       2.65118123       0.05719771       0.00000000
Si       0.06687045       2.64484442      -2.71184917       0.00000000
Si       0.01153332      -2.69373071       2.69617286       0.00000000
Si       0.10497276      -2.70847316      -2.68003712       0.00000000
Si      -2.68330511      -2.71277372       0.01890113       0.00000000
Si       2.70783785       0.02397888       2.69707430       0.00000000
