10
Lattice="16.2900001489832 0.0 0.0 0.0 16.2900001489832 0.0 0.0 0.0 29.07865470619324" Properties=species:S:1:pos:R:3:initial_magmoms:R:1 pbc="T T T"
H        0.72005059       0.81334342       1.03546182       0.00000000
Si      -1.32019048      -1.39043296       1.30821960       0.00000000
Si      -1.32382315       1.41141448      -1.33162791       0.00000000
Si       1.41151222      -1.34470693      -1.32485259       0.00000000
H        1.88822279       2.02041614       0.50937079       0.00000000
H        1.10804581       2.00958329       2.20855290       0.00000000
H        2.60333750       1.04694202       1.68917905       0.00000000
Si       0.06310746      -2.56551212       2.76785175       0.00000000
Si      -2.77070097      -0.10722078       2.56645299       0.00000000
Si      -2.65448810       0.00987174      -2.70175597       0.00000000
