10
Lattice="16.2900001489832 0.0 0.0 0.0 16.2900001489832 0.0 0.0 0.0 29.07865470619324" Properties=species:S:1:pos:R:3:initial_magmoms:R:1 pbc="T T T"
Si      -1.34470856       1.28562310      -1.39981736       0.00000000
Si       1.03852009       1.78867460       1.08198766       0.00000000
Si       1.37986075      -1.37026594      -1.30644580       0.00000000
Si      -1.38328328      -1.20484099       1.46725076       0.00000000
H       -0.57115999      -2.09192924       2.37720910       0.00000000
Si       2.40489272       0.55550530       2.52059595       0.00000000
H        1.29070558      -0.31289832       3.38164399       0.00000000
Si      -2.58090780      -2.60346782      -0.00450719       0.00000000
Si      -2.59836905       2.61739577       0.04864859       0.00000000
Si      -0.70736068       3.47926710       1.19039289       0.00000000
