10
Lattice="16.2900001489832 0.0 0.0 0.0 16.2900001489832 0.0 0.0 0.0 29.07865470619324" Properties=species:S:1:pos:R:3:initial_magmoms:R:1 pbc="T T T"
Si       1.41597568       1.47644416       1.13174124       0.00000000
Si      -1.31171968       1.37621179      -1.39600806       0.00000000
Si       1.43009911      -1.32744116      -1.34224162       0.00000000
Si      -1.24206364      -1.32916953       1.56271598       0.00000000
Si      -2.61742835      -2.63847178       0.06458369       0.00000000
Si       2.82628245       0.23030802       2.53254727       0.00000000
Si      -2.70036074      -0.00814500      -2.71585911       0.00000000
Si       0.14393844       3.06822153       2.30375642       0.00000000
Si      -2.62932005       0.27000675       2.79995458       0.00000000
Si       0.08180838      -2.75140155      -2.69934244       0.00000000
