10
Lattice="16.2900001489832 0.0 0.0 0.0 16.2900001489832 0.0 0.0 0.0 29.07865470619324" Properties=species:S:1:pos:R:3:initial_magmoms:R:1 pbc="T T T"
H       -0.45107010       1.03221586      -0.96538226       0.00000000
Si      -1.65796364      -0.97850773       1.29309870       0.00000000
Si       1.14152176      -1.44430399      -1.41258289       0.00000000
Si       1.75549187       0.88021387       1.29562854       0.00000000
H       -1.94636180       1.99485713      -0.44600841       0.00000000
H       -2.33435702       0.79861726      -1.61909949       0.00000000
H       -1.16618482       2.00568998      -2.14519051       0.00000000
Si      -0.20887038      -2.33665391       2.49093572       0.00000000
H        0.74689651      -1.42271974       3.24831836       0.00000000
Si       2.49654026       2.65686644      -0.08778846       0.00000000
