10
Lattice="16.2900001489832 0.0 0.0 0.0 16.2900001489832 0.0 0.0 0.0 29.07865470619324" Properties=species:S:1:pos:R:3:initial_magmoms:R:1 pbc="T T T"
Si      -2.00511983      -1.01317285       0.49538396       0.00000000
Si       1.59871690      -0.82494190       1.49435207       0.00000000
Si       0.46864701      -0.73101376      -2.17380391       0.00000000
Si      -0.08224821       2.39081816      -0.18360263       0.00000000
Si       2.74203057      -0.38331999      -1.62561311       0.00000000
Si      -1.24199848       0.59285827      -3.19167314       0.00000000
Si       3.21088935       1.53295417      -0.21529836       0.00000000
Si      -1.57561768       2.56705967      -1.96490286       0.00000000
Si      -3.12552975       0.49617711       1.80732563       0.00000000
Si       3.05501034      -2.05301243       0.08607282       0.00000000
