10
Lattice="16.2900001489832 0.0 0.0 0.0 16.2900001489832 0.0 0.0 0.0 29.07865470619324" Properties=species:S:1:pos:R:3:initial_magmoms:R:1 pbc="T T T"
Si       1.64618271      -0.27152172      -1.62000093       0.00000000
Si       0.88801352       1.89164532       1.07047252       0.00000000
Si      -1.65197217       1.36201832      -0.98259682       0.00000000
Si      -0.26063837      -2.14117391       1.13281715       0.00000000
Si       2.18600073       0.45440955       2.37244020       0.00000000
Si       0.49216652      -0.97687873       3.16239094       0.00000000
Si       1.60935102       1.84492885      -2.50152035       0.00000000
Si      -1.30605402       0.71324625       3.20379894       0.00000000
Si      -2.67187279      -0.24954651      -2.31178213       0.00000000
Si      -1.34596452      -2.16094997      -2.52408539       0.00000000
