10
Lattice="16.2900001489832 0.0 0.0 0.0 16.2900001489832 0.0 0.0 0.0 29.07865470619324" Properties=species:S:1:pos:R:3:initial_magmoms:R:1 pbc="T T T"
Si       1.35068536      -1.33750675       1.35582135       0.00000000
Si       1.41545440       1.32361855      -1.32560863       0.00000000
Si      -1.33242427      -1.33537276      -1.41211763       0.00000000
Si      -1.29547855       1.32015367       1.46064990       0.00000000
Si       0.03140712       2.64495357      -2.68646059       0.00000000
Si      -2.73232173      -2.63627588      -0.06094886       0.00000000
Si      -2.69127092       2.67798480       0.10369448       0.00000000
Si       2.69581583       0.04469976       2.69605655       0.00000000
Si       2.71932230      -2.68226255      -0.04222221       0.00000000
Si       0.01480761      -2.75501370       2.67195034       0.00000000
