10
Lattice="16.2900001489832 0.0 0.0 0.0 16.2900001489832 0.0 0.0 0.0 29.07865470619324" Properties=species:S:1:pos:R:3:initial_magmoms:R:1 pbc="T T T"
Si       1.30697766       1.41126787      -1.26553213       0.00000000
Si      -1.39942504       1.23585715       1.38280635       0.00000000
Si       1.34162812      -1.31636233       1.38638302       0.00000000
Si      -1.42521211      -1.42192153      -1.24206566       0.00000000
Si      -0.44178480      -2.24090129       2.63976027       0.00000000
Si      -2.14047344      -0.54079542       2.76622334       0.00000000
Si       2.58938838      -0.03640815      -2.59963173       0.00000000
Si      -0.15216489       2.71029764      -2.54444044       0.00000000
Si       2.50460218       2.80989471       0.20622582       0.00000000
Si       2.59347554      -2.80130988       0.08732320       0.00000000
