10
Lattice="16.2900001489832 0.0 0.0 0.0 16.2900001489832 0.0 0.0 0.0 29.07865470619324" Properties=species:S:1:pos:R:3:initial_magmoms:R:1 pbc="T T T"
Si       1.37781799      -1.34101792       1.32662638       0.00000000
Si      -1.35314515       1.36188148       1.35849659       0.00000000
Si       1.43134693       1.37276320      -1.26888781       0.00000000
Si      -1.40644603      -1.41883784      -1.25491261       0.00000000
Si       0.01586646       2.68593269      -2.54909884       0.00000000
Si      -0.02314809      -2.65151844       2.67107799       0.00000000
Si      -0.06758721      -2.64490470      -2.72294849       0.00000000
Si      -2.75183715      -0.09448037      -2.61758198       0.00000000
Si       2.71607245      -2.68789401      -0.06624118       0.00000000
Si       2.72692322       0.02663415       2.68049947       0.00000000
