10
Lattice="16.2900001489832 0.0 0.0 0.0 16.2900001489832 0.0 0.0 0.0 29.07865470619324" Properties=species:S:1:pos:R:3:initial_magmoms:R:1 pbc="T T T"
Si       1.35016245      -1.34110684       1.35457097       0.00000000
Si      -1.36358704      -1.39359322      -1.28800993       0.00000000
Si      -1.31294143       1.37694484       1.36207327       0.00000000
Si       1.35472202       1.37604889      -1.32482351       0.00000000
Si      -2.64217286      -0.06644691       2.66215084       0.00000000
Si      -2.72292239      -0.03968244      -2.62987353       0.00000000
Si       2.71721601      -0.00962739      -2.63839358       0.00000000
Si      -0.00651600      -2.75424807      -2.63275232       0.00000000
Si      -2.67281435       2.72220563      -0.01110805       0.00000000
Si       2.70574622      -0.00244350       2.69146212       0.00000000
