10
Lattice="16.2900001489832 0.0 0.0 0.0 16.2900001489832 0.0 0.0 0.0 29.07865470619324" Properties=species:S:1:pos:R:3:initial_magmoms:R:1 pbc="T T T"
Si       1.31294143      -1.37694484      -1.36207327       0.00000000
Si      -1.32923143      -1.44339175       1.30007757       0.00000000
Si      -1.35987292       1.34526079      -1.37318131       0.00000000
Si       1.42521211       1.42192153       1.24206566       0.00000000
H       -2.92182330       1.03312810       1.74727820       0.00000000
Si      -2.47075319       0.00091224       2.71266046       0.00000000
Si       0.02578707       2.65777868       2.62487200       0.00000000
Si       0.05431086      -2.64622907       2.70265740       0.00000000
Si       2.66766346      -0.00089595      -2.68689677       0.00000000
Si       2.66310389      -2.71805168      -0.00750229       0.00000000
