10
Lattice="16.2900001489832 0.0 0.0 0.0 16.2900001489832 0.0 0.0 0.0 29.07865470619324" Properties=species:S:1:pos:R:3:initial_magmoms:R:1 pbc="T T T"
H        1.31768182       0.82785781       0.69323513       0.00000000
Si      -1.37140624       1.69961717      -0.78747905       0.00000000
Si      -1.12728430      -0.85680514       1.89732406       0.00000000
Si       0.50306778      -1.57742587      -1.71497182       0.00000000
H        2.05806233       1.05717214      -2.22358657       0.00000000
Si       1.63189963       1.98796646       2.03695976       0.00000000
Si      -2.61361649      -2.25987914       0.74775761       0.00000000
Si      -0.34096599       2.50665635      -2.68419246       0.00000000
Si      -3.16908921       0.73987552      -1.91209602       0.00000000
Si       2.66714543      -2.34273008      -1.33322724       0.00000000
