10
Lattice="16.2900001489832 0.0 0.0 0.0 16.2900001489832 0.0 0.0 0.0 29.07865470619324" Properties=species:S:1:pos:R:3:initial_magmoms:R:1 pbc="T T T"
Si       1.56072048      -1.07414469      -1.35614122       0.00000000
Si       1.14184593       1.50724855       1.41095448       0.00000000
Si      -1.49082009       1.40209660      -1.19737176       0.00000000
Si      -0.63334706      -2.25254375       0.77718520       0.00000000
Si      -2.59396261      -0.19077219      -2.50535873       0.00000000
Si      -0.91638581      -1.82371439       3.02259559       0.00000000
Si       2.54976784       0.19086993       2.75659831       0.00000000
Si       2.85870769      -2.51138045      -0.05417353       0.00000000
Si      -2.84258059       2.62785395       0.29000142       0.00000000
Si       0.67270696      -2.96579001      -2.42661374       0.00000000
