10
Lattice="16.2900001489832 0.0 0.0 0.0 16.2900001489832 0.0 0.0 0.0 29.07865470619324" Properties=species:S:1:pos:R:3:initial_magmoms:R:1 pbc="T T T"
Si       0.32920461      -1.07639434      -2.02529922       0.00000000
Si      -1.56517579      -0.25446609       1.72006058       0.00000000
Si       1.93534650       0.04404816       1.38376594       0.00000000
Si      -0.28022058       2.24916032      -0.81597613       0.00000000
H       -1.28734984      -2.54612702       0.18043305       0.00000000
H        0.11189601      -2.85088035       1.32616113       0.00000000
Si       2.47712747      -0.13079241      -2.07758264       0.00000000
Si       1.19266096       1.80846695       2.72228550       0.00000000
Si       0.94019821       3.26124174       0.93249430       0.00000000
Si       3.56058678       0.65111131      -0.16833633       0.00000000
