10
Lattice="16.2900001489832 0.0 0.0 0.0 16.2900001489832 0.0 0.0 0.0 29.07865470619324" Properties=species:S:1:pos:R:3:initial_magmoms:R:1 pbc="T T T"
Si      -1.75549187      -0.88021387      -1.29562854       0.00000000
Si       0.74104840       1.77665258      -1.38341700       0.00000000
Si      -0.37392066       1.29987685       1.96769441       0.00000000
Si       1.69868864      -1.70010587      -0.12646307       0.00000000
H       -2.20656197       0.15200199      -2.26101080       0.00000000
H       -1.00859536      -2.30293361       1.95268982       0.00000000
H       -0.99316873       0.71521246       3.22333980       0.00000000
Si      -2.74224234       1.72010999       1.32229367       0.00000000
Si       2.14047344       0.54079542      -2.76622334       0.00000000
Si      -0.61397011      -2.32451786      -2.70821143       0.00000000
