10
Lattice="16.2900001489832 0.0 0.0 0.0 16.2900001489832 0.0 0.0 0.0 29.07865470619324" Properties=species:S:1:pos:R:3:initial_magmoms:R:1 pbc="T T T"
Si      -1.75520516      -0.34922502      -1.47969642       0.00000000
Si      -0.63645031      -1.04904343       2.03047522       0.00000000
Si       1.00862794       2.12485785       0.39939532       0.00000000
Si       1.61644042      -1.06487731      -1.40077695       0.00000000
Si      -1.22552929      -2.64751598      -1.55454488       0.00000000
H       -2.07068382       2.66392001      -0.71809738       0.00000000
H        2.11188449      -2.41815278       1.60447293       0.00000000
Si       2.60521085       0.89422327      -2.33498689       0.00000000
H        0.19302021      -0.16343757      -3.61276114       0.00000000
Si       3.21558087       1.68338092      -0.20866843       0.00000000
