10
Lattice="16.2900001489832 0.0 0.0 0.0 16.2900001489832 0.0 0.0 0.0 29.07865470619324" Properties=species:S:1:pos:R:3:initial_magmoms:R:1 pbc="T T T"
Si       1.03044025       0.80703919      -1.89671341       0.00000000
Si       1.37140624      -1.69961717       0.78747905       0.00000000
Si      -1.79768297      -0.95974165      -1.12461697       0.00000000
Si      -1.01737567       1.46696338       1.51828380       0.00000000
H        2.68908806      -0.87175936       1.48071418       0.00000000
H        1.98653294       2.80896618       0.32224965       0.00000000
Si      -2.31448322       2.65447181       0.01131160       0.00000000
Si      -3.33257565       0.85649563      -1.17576632       0.00000000
Si       0.24412194      -2.55642230       2.68480311       0.00000000
Si       3.32431662       0.88031161      -1.51712065       0.00000000
