10
Lattice="16.2900001489832 0.0 0.0 0.0 16.2900001489832 0.0 0.0 0.0 29.07865470619324" Properties=species:S:1:pos:R:3:initial_magmoms:R:1 pbc="T T T"
Si      -0.46864701       0.73101376       2.17380391       0.00000000
Si       2.27338355       0.34769376       0.54819080       0.00000000
Si      -1.71064550       1.32387202      -1.01786923       0.00000000
Si      -0.42990939      -2.22521402      -0.77104961       0.00000000
H        0.54630144      -0.06243957      -3.00600593       0.00000000
H        2.55120950      -1.94396717      -0.99143673       0.00000000
H        0.56172808       2.95570650      -1.73535596       0.00000000
Si      -3.31392360      -0.37401840      -1.10472717       0.00000000
Si      -2.47376684      -0.28215909       2.66918787       0.00000000
Si      -2.03488166      -1.91814752      -2.38346101       0.00000000
