10
Lattice="16.2900001489832 0.0 0.0 0.0 16.2900001489832 0.0 0.0 0.0 29.07865470619324" Properties=species:S:1:pos:R:3:initial_magmoms:R:1 pbc="T T T"
Si       0.57326140       0.72327601      -2.12146233       0.00000000
Si      -0.07249050      -2.28727892      -0.38747307       0.00000000
Si      -2.12258702       0.19394874       0.92179335       0.00000000
Si       1.41341815       0.81513532       1.65245271       0.00000000
H        0.45440955      -1.96880942       2.54124179       0.00000000
Si       1.77057641      -1.24020658       2.63493322       0.00000000
Si       2.16508763      -2.64319913      -0.63185009       0.00000000
Si      -3.47516202      -0.80321104      -0.75177046       0.00000000
Si      -1.38051235       1.54996093      -3.05011825       0.00000000
Si      -3.05891994       1.59723451      -1.43543871       0.00000000
