10
Lattice="16.2900001489832 0.0 0.0 0.0 16.2900001489832 0.0 0.0 0.0 29.07865470619324" Properties=species:S:1:pos:R:3:initial_magmoms:R:1 pbc="T T T"
Si       1.35008263      -1.38557854      -1.32441641       0.00000000
Si      -1.33845646      -1.35008263       1.37917151       0.00000000
Si       1.37642356       1.35630541       1.34663250       0.00000000
Si      -1.36059946       1.33490035      -1.38900010       0.00000000
Si       2.69236235       0.01674612      -2.61740170       0.00000000
Si      -2.70095044       0.03559365       2.69274158       0.00000000
Si       0.01640403       2.73685035       2.66438989       0.00000000
Si      -2.70547418       2.71047683      -0.05271960       0.00000000
Si      -2.71669473      -0.07737750      -2.69923485       0.00000000
Si      -2.69591195      -2.72800487       0.05254513       0.00000000
