10
Lattice="16.2900001489832 0.0 0.0 0.0 16.2900001489832 0.0 0.0 0.0 29.07865470619324" Properties=species:S:1:pos:R:3:initial_magmoms:R:1 pbc="T T T"
Si      -0.37364373       0.60485585       2.20137048       0.00000000
Si       0.83776213       1.86336425      -1.18050615       0.00000000
Si      -1.89100838      -0.86187133      -1.14174430       0.00000000
Si       1.74588077      -1.69059251      -0.10840522       0.00000000
Si      -0.91502723      -1.62188128       2.87593711       0.00000000
Si      -0.63734788      -2.19364400      -2.59021025       0.00000000
Si       2.20446056       0.61845474      -2.58657541       0.00000000
H       -3.05189895       0.63711820       1.53046775       0.00000000
H        0.53958996      -2.01005570       2.92333532       0.00000000
Si      -1.36293218       2.81085582       2.01922178       0.00000000
