10
Lattice="16.2900001489832 0.0 0.0 0.0 16.2900001489832 0.0 0.0 0.0 29.07865470619324" Properties=species:S:1:pos:R:3:initial_magmoms:R:1 pbc="T T T"
Si      -0.57326140      -0.72327601       2.12146233       0.00000000
Si      -1.95377375       0.82668493      -0.92865592       0.00000000
Si       1.60327810       1.69789043       0.08685794       0.00000000
Si       1.27904194      -1.54412911      -1.27873384       0.00000000
Si       0.99220762       2.35875944      -2.08755662       0.00000000
Si       2.88401421      -1.85119562       0.33367756       0.00000000
Si       3.31392360       0.37401840       1.10472717       0.00000000
Si      -0.64575190      -3.01055493       1.73398926       0.00000000
Si      -1.26879553       2.91331992      -1.68935352       0.00000000
Si      -2.68108967      -0.81388099      -2.41914052       0.00000000
