10
Lattice="16.2900001489832 0.0 0.0 0.0 16.2900001489832 0.0 0.0 0.0 29.07865470619324" Properties=species:S:1:pos:R:3:initial_magmoms:R:1 pbc="T T T"
Si      -1.36001953       1.38054493       1.31775740       0.00000000
Si       1.35249355       1.37886706      -1.33337263       0.00000000
Si       1.36531378      -1.32375799       1.38934904       0.00000000
Si      -1.37642356      -1.35630541      -1.34663250       0.00000000
Si       2.71915940      -0.01451439      -2.63449704       0.00000000
Si      -2.73043697       0.06569757       2.67543978       0.00000000
Si      -0.00293220      -2.71120988       2.70062190       0.00000000
Si      -0.02634093      -2.74188396      -2.67104891       0.00000000
Si      -0.02564046       2.71195922      -2.70431489       0.00000000
Si      -2.71488002      -2.70638804       0.03253901       0.00000000
