10
Lattice="16.2900001489832 0.0 0.0 0.0 16.2900001489832 0.0 0.0 0.0 29.07865470619324" Properties=species:S:1:pos:R:3:initial_magmoms:R:1 pbc="T T T"
Si       0.37364373      -0.60485585      -2.20137048       0.00000000
Si      -0.54138349      -2.22673714       0.67456663       0.00000000
Si       2.15640506       0.25846529       0.99853192       0.00000000
Si      -0.98928845       2.20599997      -0.18214869       0.00000000
H       -2.67825521       0.03226235      -0.67090272       0.00000000
H        0.91323370      -2.61491155       0.72196484       0.00000000
Si       1.43708752       1.27668804       3.02854189       0.00000000
Si       1.21140586       1.25850840      -3.38187662       0.00000000
Si      -2.11144466       2.63095720       1.85876577       0.00000000
H       -1.35047033       0.21244604       3.61662860       0.00000000
