10
Lattice="16.2900001489832 0.0 0.0 0.0 16.2900001489832 0.0 0.0 0.0 29.07865470619324" Properties=species:S:1:pos:R:3:initial_magmoms:R:1 pbc="T T T"
Si       1.29023317      -0.75416185      -0.11116770       0.00000000
H       -1.39924585       0.30475332      -1.14572807       0.00000000
Si      -1.36409203       0.92672182       2.10558539       0.00000000
Si      -2.30795093      -0.83447155      -1.55974996       0.00000000
Si       2.75988441       0.81151894       0.72353509       0.00000000
Si      -1.67707181       2.59641425       0.39389946       0.00000000
Si      -0.11189601       2.85088035      -1.32616113       0.00000000
Si       1.19806435      -2.77521330       1.02141683       0.00000000
Si       1.73089559      -1.53104824      -2.26176684       0.00000000
Si      -2.32502285      -1.30282534       1.93620222       0.00000000
