10
Lattice="16.28999089631971 0.0 0.0 0.0 16.28999089631971 0.0 0.0 0.0 34.385447050020396" Properties=species:S:1:pos:R:3:initial_magmoms:R:1 pbc="T T T"
Si      -1.28989270       1.34975030      -1.36857594       0.00000000
Si      -1.27567804      -1.50666440       1.22587626       0.00000000
Si       1.44806697      -1.37564393      -1.34722257       0.00000000
Si       0.78416802       1.84769814       1.38057647       0.00000000
Si       0.43707699      -2.28563591       2.57818788       0.00000000
Si      -2.61419381      -0.01425308      -2.72907130       0.00000000
Si      -2.66997077       2.73113742       0.07430699       0.00000000
Si       0.09928755       2.69855742      -2.72374155       0.00000000
Si       0.10153557      -2.72911487      -2.72845236       0.00000000
Si      -2.63937815      -2.83449488      -0.05171574       0.00000000
