10
Lattice="16.28999089631971 0.0 0.0 0.0 16.28999089631971 0.0 0.0 0.0 34.385447050020396" Properties=species:S:1:pos:R:3:initial_magmoms:R:1 pbc="T T T"
Si      -1.35821133      -1.35451560      -1.35537192       0.00000000
Si       1.35744570      -1.35640639       1.35698804       0.00000000
Si       1.35770634       1.35794580      -1.35750382       0.00000000
Si      -1.35734796       1.35869514       1.35750382       0.00000000
Si      -2.70513369      -0.00935535      -2.71273820       0.00000000
Si      -2.71464705      -2.71291609      -0.00175366       0.00000000
Si       2.71505430      -2.71348624      -0.00099718       0.00000000
Si       0.00061902      -2.71562023       2.71425117       0.00000000
Si       2.71538010       0.00076563       2.71493887       0.00000000
Si      -2.71591767      -0.00013684       2.71476695       0.00000000
