10
Lattice="16.28999089631971 0.0 0.0 0.0 16.28999089631971 0.0 0.0 0.0 34.385447050020396" Properties=species:S:1:pos:R:3:initial_magmoms:R:1 pbc="T T T"
Si      -1.35653346      -1.35614915      -1.35791645       0.00000000
Si       1.35856971       1.35883198      -1.35726312       0.00000000
Si      -1.35705474       1.35883198       1.36059851       0.00000000
Si       1.36208835      -1.35623176       1.36441530       0.00000000
Si      -2.71365988       0.00159805      -2.71521396       0.00000000
Si       0.00127062      -2.71277926      -2.71652061       0.00000000
Si       2.71591767       0.00013684      -2.71476695       0.00000000
Si      -2.71597143      -2.71548340      -0.00030947       0.00000000
Si       0.00073305       2.71673380      -2.71517957       0.00000000
Si       2.71653669      -2.71548340      -0.00051578       0.00000000
