10
Lattice="16.28999089631971 0.0 0.0 0.0 16.28999089631971 0.0 0.0 0.0 34.385447050020396" Properties=species:S:1:pos:R:3:initial_magmoms:R:1 pbc="T T T"
Si       1.35922131       1.34994904      -1.39584362       0.00000000
Si      -1.34877942      -1.36526131      -1.39395242       0.00000000
Si       1.38903201      -1.41552999       1.41998221       0.00000000
Si      -1.43114166       1.47414400       1.57244737       0.00000000
Si      -0.25607880      -2.69686881       2.66611151       0.00000000
Si      -2.69285103       2.71391074      -0.04150326       0.00000000
Si       2.73176784       2.70055294      -0.02210985       0.00000000
Si      -2.71914309      -2.72439891      -0.02125022       0.00000000
Si       2.71643895      -2.74347450      -0.03105008       0.00000000
Si       0.00568521       2.70879568      -2.75977752       0.00000000
