10
Lattice="16.28999089631971 0.0 0.0 0.0 16.28999089631971 0.0 0.0 0.0 34.385447050020396" Properties=species:S:1:pos:R:3:initial_magmoms:R:1 pbc="T T T"
Si      -0.74762955       1.28005191      -1.81335195       0.00000000
Si       1.46579049      -1.57903857      -0.91895159       0.00000000
Si      -1.87165584      -1.47844782       0.00467642       0.00000000
Si       0.49350555       1.51827687       1.79313329       0.00000000
Si      -0.00423540       0.03124422       3.56814545       0.00000000
Si      -2.26214343       2.71691136      -0.72759647       0.00000000
Si      -0.76538565       3.40667883       1.08785300       0.00000000
Si       0.54524259      -3.66219467      -0.32896576       0.00000000
Si       1.38025170      -1.18873017      -3.25510016       0.00000000
Si      -1.42242651      -3.27600764      -1.44432713       0.00000000
