10
Lattice="16.28999089631971 0.0 0.0 0.0 16.28999089631971 0.0 0.0 0.0 34.385447050020396" Properties=species:S:1:pos:R:3:initial_magmoms:R:1 pbc="T T T"
Si       0.49774095       1.48703265      -1.77501215       0.00000000
Si       0.63996894       0.65301723       2.20118562       0.00000000
Si      -2.29978962      -0.68422887      -0.24042318       0.00000000
Si       1.38354228      -1.98869949      -0.27852228       0.00000000
Si       0.00423540      -0.03124422      -3.56814545       0.00000000
Si      -2.02541715      -2.66948302      -1.48741211       0.00000000
Si       2.94956514       1.16559837       2.00130291       0.00000000
Si       0.23100849      -1.48506156       3.46416380       0.00000000
Si       1.42247538      -2.92067482       1.96777708       0.00000000
Si       3.73964643       0.70016049      -0.19616909       0.00000000
