10
Lattice="16.28999089631971 0.0 0.0 0.0 16.28999089631971 0.0 0.0 0.0 34.385447050020396" Properties=species:S:1:pos:R:3:initial_magmoms:R:1 pbc="T T T"
Si      -1.20340746      -1.58238521      -1.29633208       0.00000000
Si       2.15840871       0.53302509      -0.86252504       0.00000000
Si       0.03893310      -0.93197534       2.24629935       0.00000000
Si      -1.38354228       1.98869949       0.27852228       0.00000000
Si       2.35610415       2.68885998       0.08235319       0.00000000
Si      -0.64019700      -3.54875111      -0.12320313       0.00000000
Si      -3.40895943      -0.68078354      -1.20888984       0.00000000
Si      -0.74357334       2.64171672       2.47970790       0.00000000
Si      -0.88580133       3.47573214      -1.49648988       0.00000000
Si      -1.04558994      -3.07301795       2.15428385       0.00000000
