10
Lattice="16.28999089631971 0.0 0.0 0.0 16.28999089631971 0.0 0.0 0.0 34.385447050020396" Properties=species:S:1:pos:R:3:initial_magmoms:R:1 pbc="T T T"
Si      -1.21601592       1.34486982      -1.45006950       0.00000000
Si      -1.36010097      -1.34495127       1.35307841       0.00000000
Si       1.35413883       1.36862064       1.34912408       0.00000000
Si       1.12000266      -1.48094019      -1.46941476       0.00000000
Si       0.60701427       2.19652731      -2.73815392       0.00000000
Si       2.23502058       0.26841033      -2.82600878       0.00000000
Si      -2.20141431      -0.30920049      -2.87820592       0.00000000
Si      -0.00529425      -2.70112635       2.70611213       0.00000000
Si      -0.73643832      -2.32870437      -2.94381339       0.00000000
Si       2.71101438      -2.70270648      -0.04419908       0.00000000
