10
Lattice="16.28999089631971 0.0 0.0 0.0 16.28999089631971 0.0 0.0 0.0 34.385447050020396" Properties=species:S:1:pos:R:3:initial_magmoms:R:1 pbc="T T T"
Si      -1.35685926      -1.35772263      -1.35685050       0.00000000
Si       1.35785295       1.35778779      -1.35715997       0.00000000
Si      -1.35513252       1.35977517       1.35970449       0.00000000
Si       1.35887922      -1.36080144       1.35987642       0.00000000
Si       0.00526167       2.71801908       2.68626140       0.00000000
Si       0.01759320      -2.70839169       2.71772410       0.00000000
Si      -2.71460144       0.00009774      -2.71291013       0.00000000
Si       0.00058644       2.71370223      -2.71411362       0.00000000
Si       0.00030951      -2.71459818      -2.71431994       0.00000000
Si       2.71500543       0.00032580      -2.71442309       0.00000000
