10
Lattice="16.28999089631971 0.0 0.0 0.0 16.28999089631971 0.0 0.0 0.0 34.385447050020396" Properties=species:S:1:pos:R:3:initial_magmoms:R:1 pbc="T T T"
Si      -1.35267273      -1.85085351      -0.18819166       0.00000000
Si      -1.10288187       2.01210822      -0.38398250       0.00000000
Si       1.52143713       0.06519258       1.85392680       0.00000000
Si      -0.71695548       0.15403824      -2.30238205       0.00000000
Si      -3.39110559      -1.31416317       0.90162131       0.00000000
Si       0.16583220      -0.17936919       3.79949087       0.00000000
Si      -0.21708054      -3.73822431       0.77649260       0.00000000
Si       2.02452120      -3.33598512       0.12650413       0.00000000
Si       2.83503015      -1.92751425       1.88380777       0.00000000
Si      -1.15719273       3.55527621       1.44776567       0.00000000
