10
Lattice="16.28999089631971 0.0 0.0 0.0 16.28999089631971 0.0 0.0 0.0 34.385447050020396" Properties=species:S:1:pos:R:3:initial_magmoms:R:1 pbc="T T T"
Si       1.36114353       1.34864910      -1.35511747       0.00000000
Si       1.35599589      -1.35394335       1.35819153       0.00000000
Si      -1.36057338       1.35464382       1.35609402       0.00000000
Si      -1.35413883      -1.36862064      -1.34912408       0.00000000
Si      -2.57015475      -0.02375082      -2.79919358       0.00000000
Si       2.71155195      -2.71480995      -0.00608623       0.00000000
Si       2.71427238       2.71340901       0.00237260       0.00000000
Si       2.71270854       0.00097740       2.71507642       0.00000000
Si      -2.71423980      -2.71357191       0.00395433       0.00000000
Si      -0.00250866      -2.71396287       2.71483572       0.00000000
