10
Lattice="16.28999089631971 0.0 0.0 0.0 16.28999089631971 0.0 0.0 0.0 34.385447050020396" Properties=species:S:1:pos:R:3:initial_magmoms:R:1 pbc="T T T"
Si       0.74617974       2.16253008      -0.52128367       0.00000000
Si      -2.23062228      -0.60429384       0.40736462       0.00000000
Si       1.20376584      -0.49269105       2.02650745       0.00000000
Si       0.42485949      -1.53629361      -1.83907228       0.00000000
Si      -1.62432477      -2.55808386       1.64101199       0.00000000
Si       1.72734273      -2.95191090      -0.51939247       0.00000000
Si       2.92843701      -1.63145979       1.00639383       0.00000000
Si       2.88406305       1.98205317       0.47390050       0.00000000
Si      -3.04890156      -1.08496287      -1.76586562       0.00000000
Si      -0.18355572       3.76292484       0.97297115       0.00000000
