10
Lattice="16.28999089631971 0.0 0.0 0.0 16.28999089631971 0.0 0.0 0.0 34.385447050020396" Properties=species:S:1:pos:R:3:initial_magmoms:R:1 pbc="T T T"
Si      -0.58165074       0.47214936      -2.26039740       0.00000000
Si      -1.82303019      -0.85165749       1.28808442       0.00000000
Si       0.86428224       1.90824318       1.33703901       0.00000000
Si       1.62800631      -1.92811698      -0.08785487       0.00000000
Si       2.10826809       0.52074243       2.73216053       0.00000000
Si      -0.60701427      -2.19652731       2.73815392       0.00000000
Si       3.41257581      -0.83427606       1.29402623       0.00000000
Si      -2.80842858      -2.50572780      -0.14005200       0.00000000
Si       0.41919057      -1.46943945      -3.44497671       0.00000000
Si       2.72130966       2.78899461       0.14477970       0.00000000
