10
Lattice="16.28999089631971 0.0 0.0 0.0 16.28999089631971 0.0 0.0 0.0 34.385447050020396" Properties=species:S:1:pos:R:3:initial_magmoms:R:1 pbc="T T T"
Si       1.35643572       1.35840049      -1.35361827       0.00000000
Si      -1.35780408       1.35663011       1.35860416       0.00000000
Si       1.35725022      -1.35843939       1.35826030       0.00000000
Si      -1.35718506      -1.35865116      -1.35819153       0.00000000
Si       0.00951336       2.70356075      -2.71098455       0.00000000
Si       2.71464705       2.71291609       0.00175366       0.00000000
Si       2.71122615       0.00125433      -2.71755217       0.00000000
Si      -0.00127062       2.71277926       2.71652061       0.00000000
Si      -2.71493050       2.71437731       0.00130665       0.00000000
Si       2.71482624      -2.71599912       0.00092841       0.00000000
