10
Lattice="16.28999089631971 0.0 0.0 0.0 16.28999089631971 0.0 0.0 0.0 34.385447050020396" Properties=species:S:1:pos:R:3:initial_magmoms:R:1 pbc="T T T"
Si      -1.25087652      -1.54385217      -1.27143700       0.00000000
Si       0.40912335      -0.48659859       2.28852471       0.00000000
Si       1.64511081       1.28133882      -1.24612930       0.00000000
Si      -2.46306429      -0.02753010      -2.68736173       0.00000000
Si       2.42532036      -1.67910804       2.21452718       0.00000000
Si       0.89541243       1.68110749       3.17707954       0.00000000
Si       0.25607880       2.69686881      -2.66611151       0.00000000
Si      -3.47405427      -0.93752208       1.23804871       0.00000000
Si       0.25725168      -2.73639420      -2.69695528       0.00000000
Si       2.97251775      -0.04660569      -2.69716159       0.00000000
