10
Lattice="16.28999089631971 0.0 0.0 0.0 16.28999089631971 0.0 0.0 0.0 34.385447050020396" Properties=species:S:1:pos:R:3:initial_magmoms:R:1 pbc="T T T"
Si       0.36934317      -0.12235419      -2.32225685       0.00000000
Si       0.56321046      -1.96636590       1.17312895       0.00000000
Si       1.20340746       1.58238521       1.29633208       0.00000000
Si      -2.20555197       0.90160167       0.08744224       0.00000000
Si      -2.04755526       2.06139266      -1.98861467       0.00000000
Si       1.28989107       1.96080191      -2.91224268       0.00000000
Si       0.15781752      -1.49063274       3.45061593       0.00000000
Si      -1.59832593       0.26383284      -3.43761822       0.00000000
Si       1.24234056       0.65040987       3.54263143       0.00000000
Si      -3.69121952      -0.84292605       0.66759383       0.00000000
