10
Lattice="16.28999089631971 0.0 0.0 0.0 16.28999089631971 0.0 0.0 0.0 34.385447050020396" Properties=species:S:1:pos:R:3:initial_magmoms:R:1 pbc="T T T"
Si      -1.18682424      -1.91545965       0.76696783       0.00000000
Si      -1.18333818       1.69653834      -1.20318185       0.00000000
Si       0.85638159       1.63582551       1.56450433       0.00000000
Si       1.63999575      -0.96531282      -1.66611338       0.00000000
Si       1.94844690       3.09399228       0.00065332       0.00000000
Si       1.58245947       0.78270192      -3.23061771       0.00000000
Si      -0.77794524       1.22080518      -3.48066882       0.00000000
Si       2.11613616       0.40138560       3.17214492       0.00000000
Si      -0.18598293      -3.85704846      -0.41761149       0.00000000
Si      -0.60517350      -2.38760901       3.02736522       0.00000000
