10
Lattice="16.28999089631971 0.0 0.0 0.0 16.28999089631971 0.0 0.0 0.0 34.385447050020396" Properties=species:S:1:pos:R:3:initial_magmoms:R:1 pbc="T T T"
Si       1.36024758       1.35259128       1.36543311       0.00000000
Si      -1.35301482      -1.35971490       1.36949060       0.00000000
Si       1.38357486      -1.29915031      -1.40875536       0.00000000
Si      -1.12690962       1.49442831      -1.45767212       0.00000000
Si       0.74376882       2.37172626      -2.62800382       0.00000000
Si      -2.16018432      -0.08610894      -2.94339045       0.00000000
Si       2.33158770       0.55967553      -2.77019086       0.00000000
Si      -2.70005121      -2.72117623       0.00077023       0.00000000
Si      -2.70930393       2.71336014      -0.02345433       0.00000000
Si      -2.71049310      -0.00285075       2.72771651       0.00000000
