10
Lattice="16.28999089631971 0.0 0.0 0.0 16.28999089631971 0.0 0.0 0.0 34.385447050020396" Properties=species:S:1:pos:R:3:initial_magmoms:R:1 pbc="T T T"
Si       1.35690813      -1.35761186      -1.35740067       0.00000000
Si      -1.35795069       1.35728280      -1.35774452       0.00000000
Si      -1.35739683      -1.35786435       1.35808838       0.00000000
Si       1.35812988       1.35949824       1.35674734       0.00000000
Si       2.71396287      -2.71447705      -0.00037824       0.00000000
Si       2.71264338      -0.00114030       2.71586728       0.00000000
Si      -0.00006516      -2.71466367      -2.71387293       0.00000000
Si       2.71435383       2.71498914      -0.00034385       0.00000000
Si      -2.71507059      -0.00068418      -2.71435432       0.00000000
Si       0.00335574       2.71277370       2.71738024       0.00000000
