10
Lattice="16.28999089631971 0.0 0.0 0.0 16.28999089631971 0.0 0.0 0.0 34.385447050020396" Properties=species:S:1:pos:R:3:initial_magmoms:R:1 pbc="T T T"
Si      -1.35353610       1.35884664      -1.36393390       0.00000000
Si       1.36120869      -1.35807612      -1.36235217       0.00000000
Si       1.37254653       1.35060390       1.37373376       0.00000000
Si      -1.35922131      -1.34994904       1.39584362       0.00000000
Si      -2.71078632       2.71155195      -0.00350732       0.00000000
Si      -2.70800073      -2.71521035       0.00189120       0.00000000
Si      -2.71151937      -0.00014661      -2.71978723       0.00000000
Si       2.71985985      -2.71393748      -0.00319785       0.00000000
Si       2.72196126       2.71256193      -0.00306031       0.00000000
Si       0.00327429      -2.71524814      -2.72030301       0.00000000
