10
Lattice="16.28999089631971 0.0 0.0 0.0 16.28999089631971 0.0 0.0 0.0 34.385447050020396" Properties=species:S:1:pos:R:3:initial_magmoms:R:1 pbc="T T T"
Si       2.26504305       0.39082968       0.38604563       0.00000000
Si      -1.03368195       1.68884946      -1.25692633       0.00000000
Si      -0.19769544      -2.15583489      -0.94487823       0.00000000
Si      -0.79008129       0.46543788       2.19747199       0.00000000
Si       0.09673002       2.72116305       2.21043531       0.00000000
Si       1.74026070      -3.11228921       0.07753923       0.00000000
Si      -2.35610415      -2.68885998      -0.08235319       0.00000000
Si       3.07605699       0.93380796      -1.76105165       0.00000000
Si      -3.24190548       0.78687216      -1.57884307       0.00000000
Si      -0.28465146       3.68347851       0.07943043       0.00000000
