10
Lattice="16.28999089631971 0.0 0.0 0.0 16.28999089631971 0.0 0.0 0.0 34.385447050020396" Properties=species:S:1:pos:R:3:initial_magmoms:R:1 pbc="T T T"
Si       0.02831202       0.60823602       2.24523341       0.00000000
Si       0.79205238       1.95988248      -1.06450526       0.00000000
Si      -2.06174385      -0.22188609      -1.15036577       0.00000000
Si       1.77474663      -1.67508441      -0.19066741       0.00000000
Si       2.37648294       1.11107574       2.32129406       0.00000000
Si       2.73691548       2.37638520       0.27621845       0.00000000
Si      -1.12228326      -1.06696242       3.40818426       0.00000000
Si      -3.62586078      -0.97179624       0.56271816       0.00000000
Si      -2.32337754      -2.38741353       1.88239797       0.00000000
Si       0.61688601      -3.71196972      -0.74420465       0.00000000
