10
Lattice="16.28999089631971 0.0 0.0 0.0 16.28999089631971 0.0 0.0 0.0 34.385447050020396" Properties=species:S:1:pos:R:3:initial_magmoms:R:1 pbc="T T T"
Si       0.87208515      -0.87304626       2.03665117       0.00000000
Si      -1.15786062      -2.03688531      -0.55353724       0.00000000
Si       1.97149725       0.77471982      -1.14507041       0.00000000
Si      -1.77474663       1.67508441       0.19066741       0.00000000
Si      -2.51346555      -2.28144708       1.39202683       0.00000000
Si      -1.74643461       2.28332043       2.43590082       0.00000000
Si       0.60173631       2.78616015       2.51196147       0.00000000
Si      -0.93884157      -1.92870342       3.14348494       0.00000000
Si       1.56027249      -0.14869512      -3.50611407       0.00000000
Si      -0.98269425       3.63496689      -0.87383785       0.00000000
