10
Lattice="16.28999089631971 0.0 0.0 0.0 16.28999089631971 0.0 0.0 0.0 34.385447050020396" Properties=species:S:1:pos:R:3:initial_magmoms:R:1 pbc="T T T"
Si      -1.47176892       1.11939993      -1.37321798       0.00000000
Si       2.07197397       0.99518868       0.48596979       0.00000000
Si      -1.06065819      -0.10388133       2.10404668       0.00000000
Si       0.48641940      -1.41742548      -1.82858471       0.00000000
Si       3.04908075      -0.85892283       1.59992136       0.00000000
Si       1.57597605       2.62795167       2.15029513       0.00000000
Si       2.29734612      -0.36176832      -2.93541848       0.00000000
Si      -0.32117364       2.79459837      -2.53616884       0.00000000
Si      -0.02697624      -1.79273079       3.36097301       0.00000000
Si       3.16469088       1.39380498      -1.63406613       0.00000000
