10
Lattice="16.28999089631971 0.0 0.0 0.0 16.28999089631971 0.0 0.0 0.0 34.385447050020396" Properties=species:S:1:pos:R:3:initial_magmoms:R:1 pbc="T T T"
Si      -1.29977910       1.15608012      -1.61625446       0.00000000
Si       2.29157946       0.70768158       0.00474519       0.00000000
Si       0.24511563      -2.36932741      -0.50763264       0.00000000
Si      -1.54108776       0.38235074       1.87438615       0.00000000
Si      -0.67960251      -2.91230569       1.71841368       0.00000000
Si      -0.94656303       3.40985049      -0.64063562       0.00000000
Si      -2.26806973       2.53320414       1.20170328       0.00000000
Si      -2.87931289      -1.61016454       1.77494338       0.00000000
Si       2.92931667      -1.07770960       2.20297367       0.00000000
Si       3.48304635      -0.72793168      -1.49164153       0.00000000
