10
Lattice="16.28999089631971 0.0 0.0 0.0 16.28999089631971 0.0 0.0 0.0 34.385447050020396" Properties=species:S:1:pos:R:3:initial_magmoms:R:1 pbc="T T T"
Si      -1.30430772       1.35501849       1.43813430       0.00000000
Si       0.96097968       1.67744646      -1.39487880       0.00000000
Si       1.41652953      -1.34943102       1.40362161       0.00000000
Si      -1.78456950      -1.09384092      -1.38188109       0.00000000
Si      -3.41257581       0.83427606      -1.29402623       0.00000000
Si      -2.54829357       2.74251924       0.04301278       0.00000000
Si       1.36407573       0.45809109      -3.50067914       0.00000000
Si      -2.66545125       0.00636939       2.79325177       0.00000000
Si      -0.69126615       3.62327067      -1.14924653       0.00000000
Si       2.73087189       2.74110201      -0.11937258       0.00000000
