10
Lattice="16.28999089631971 0.0 0.0 0.0 16.28999089631971 0.0 0.0 0.0 34.385447050020396" Properties=species:S:1:pos:R:3:initial_magmoms:R:1 pbc="T T T"
Si       1.35622395      -1.35751086      -1.36286796       0.00000000
Si      -1.35915615       1.36013355      -1.36338374       0.00000000
Si       1.36093176       1.35795069       1.37256466       0.00000000
Si      -1.35992178      -1.35448092       1.38707532       0.00000000
Si       2.71446786      -2.71265967      -0.00433257       0.00000000
Si      -2.71754667      -2.71379997      -0.00453888       0.00000000
Si       2.71142163       2.72051145      -0.00367924       0.00000000
Si      -0.06315633       2.60540631       2.82387203       0.00000000
Si      -2.71596654       2.71880100      -0.00660201       0.00000000
Si      -0.00016290      -2.71384884      -2.72105949       0.00000000
