10
Lattice="16.28999089631971 0.0 0.0 0.0 16.28999089631971 0.0 0.0 0.0 34.385447050020396" Properties=species:S:1:pos:R:3:initial_magmoms:R:1 pbc="T T T"
Si      -0.02831202      -0.60823602      -2.24523341       0.00000000
Si      -1.15059528      -1.67519844       1.16295085       0.00000000
Si      -1.19496924       1.93831452       0.63045752       0.00000000
Si       2.34817092       0.50283972       0.07606065       0.00000000
Si       2.22482304       2.13928425       1.69981114       0.00000000
Si       0.61035372       3.43720629       0.66085428       0.00000000
Si      -1.56592512       1.28115963       2.95976339       0.00000000
Si      -2.87526645      -0.53642970       2.18306448       0.00000000
Si       0.76374036       1.35164646      -3.30973867       0.00000000
Si       1.74643461      -2.28332043      -2.43590082       0.00000000
