10
Lattice="16.28999089631971 0.0 0.0 0.0 16.28999089631971 0.0 0.0 0.0 34.385447050020396" Properties=species:S:1:pos:R:3:initial_magmoms:R:1 pbc="T T T"
Si      -1.34666728       1.34957763       1.35392773       0.00000000
Si       1.36440316       1.34786718      -1.35513466       0.00000000
Si      -1.32816019      -1.36793646      -1.37602040       0.00000000
Si       1.36451719      -1.36629117       1.34949201       0.00000000
Si       0.64857169      -2.17464984      -2.55182454       0.00000000
Si       2.45055520      -0.24118974      -2.69284965       0.00000000
Si      -2.63281165       0.08117307      -2.69556610       0.00000000
Si      -2.70854386       2.70125667      -0.00529536       0.00000000
Si      -2.70597004      -0.00830790       2.70902457       0.00000000
Si       0.00871352       2.70606222       2.70991860       0.00000000
