10
Lattice="16.28999089631971 0.0 0.0 0.0 16.28999089631971 0.0 0.0 0.0 34.385447050020396" Properties=species:S:1:pos:R:3:initial_magmoms:R:1 pbc="T T T"
Si       1.82200392      -0.81031347      -1.25898946       0.00000000
Si      -2.19745584      -0.05607018      -0.90034905       0.00000000
Si       1.01030580       2.15917434      -0.39336973       0.00000000
Si       0.33402645      -1.85455134       1.58647664       0.00000000
Si       2.10471687       1.31199660      -2.27590524       0.00000000
Si      -0.79718373       3.32679267      -1.34350894       0.00000000
Si      -2.25499212       1.69194456      -2.46485338       0.00000000
Si      -0.06906960      -0.63519597       3.69227698       0.00000000
Si       2.90256849       2.22863490       1.27154016       0.00000000
Si      -3.83745159       0.90924264       0.76576433       0.00000000
