10
Lattice="16.28999089631971 0.0 0.0 0.0 16.28999089631971 0.0 0.0 0.0 34.385447050020396" Properties=species:S:1:pos:R:3:initial_magmoms:R:1 pbc="T T T"
Si      -0.33402645       1.85455134      -1.58647664       0.00000000
Si      -0.40309605       1.21935537       2.10580034       0.00000000
Si       2.23712199      -1.07527032      -0.25235494       0.00000000
Si      -2.22213519      -1.59879834      -0.14820136       0.00000000
Si       1.48797747       1.04423787      -2.84546610       0.00000000
Si      -1.36407573      -0.45809109       3.50067914       0.00000000
Si       3.54170664       0.78192000      -1.35121128       0.00000000
Si      -2.53148229       1.79848116      -2.48682569       0.00000000
Si       3.26345715      -1.50335523       1.89085679       0.00000000
Si      -3.14864523      -1.55193201       2.11879805       0.00000000
