10
Lattice="16.28999089631971 0.0 0.0 0.0 16.28999089631971 0.0 0.0 0.0 34.385447050020396" Properties=species:S:1:pos:R:3:initial_magmoms:R:1 pbc="T T T"
Si      -1.29195990       1.36085031      -1.31663326       0.00000000
Si       1.32494715       1.38890169       1.34079249       0.00000000
Si      -1.38984651      -1.32598971       1.34405911       0.00000000
Si       1.29220425      -1.30466610      -1.57093785       0.00000000
Si      -2.12993379      -0.42249744      -2.60081179       0.00000000
Si       0.34666749       2.42268138      -2.64671192       0.00000000
Si       2.05095987       0.62201736      -2.90166713       0.00000000
Si      -0.47768796      -2.36832165      -2.84644407       0.00000000
Si       2.67620265      -2.66346387      -0.03538952       0.00000000
Si      -0.03367143      -2.67807600       2.69960296       0.00000000
