10
Lattice="16.28999089631971 0.0 0.0 0.0 16.28999089631971 0.0 0.0 0.0 34.385447050020396" Properties=species:S:1:pos:R:3:initial_magmoms:R:1 pbc="T T T"
Si       1.14002307      -0.06463872       2.07959861       0.00000000
Si      -0.04621473       2.08977894      -1.12216969       0.00000000
Si       1.18573281      -1.37870415      -1.53744297       0.00000000
Si      -2.25095220      -0.78055164       0.04985893       0.00000000
Si      -0.65316384      -2.57235390      -2.35117503       0.00000000
Si      -3.20017050       0.19106541      -1.89635846       0.00000000
Si      -3.21968592       0.31530924       1.89065048       0.00000000
Si       2.66079231       0.10539630      -2.65105068       0.00000000
Si      -2.12214717       2.22290082      -2.25307329       0.00000000
Si      -2.10553137      -3.13447293      -0.52919233       0.00000000
