10
Lattice="16.28999089631971 0.0 0.0 0.0 16.28999089631971 0.0 0.0 0.0 34.385447050020396" Properties=species:S:1:pos:R:3:initial_magmoms:R:1 pbc="T T T"
Si      -1.35705474       1.35686520      -1.35702243       0.00000000
Si       1.35754344       1.35630971       1.35771014       0.00000000
Si      -1.35739683      -1.35752514       1.35743505       0.00000000
Si       1.35757602      -1.35863286      -1.35746944       0.00000000
Si      -2.71402803      -0.00018662      -2.71349468       0.00000000
Si      -2.71396287       2.71447705       0.00037824       0.00000000
Si       0.00169416      -2.71531293      -2.71318522       0.00000000
Si      -0.00252495      -2.71140333       2.71755217       0.00000000
Si       2.71427807       0.00125795      -2.71504203       0.00000000
Si      -0.00131949       2.71333675       2.71624552       0.00000000
