10
Lattice="16.28999089631971 0.0 0.0 0.0 16.28999089631971 0.0 0.0 0.0 34.385447050020396" Properties=species:S:1:pos:R:3:initial_magmoms:R:1 pbc="T T T"
Si       0.82730394      -0.86917250       1.99789875       0.00000000
Si       1.85774418       0.81226827      -1.22707975       0.00000000
Si      -0.80685999      -1.89787378      -1.26762021       0.00000000
Si      -1.79222580       1.87224228       0.17529711       0.00000000
Si       0.56801601       2.14974243      -2.66597397       0.00000000
Si      -2.16042867      -0.57672627      -2.66779640       0.00000000
Si      -3.49081668       0.72295020      -1.16264139       0.00000000
Si      -0.80672967       3.47216463      -1.26163714       0.00000000
Si       2.45062266       0.65314755       2.83955180       0.00000000
Si      -2.57168601      -2.92477895      -0.03012167       0.00000000
