10
Lattice="16.28999089631971 0.0 0.0 0.0 16.28999089631971 0.0 0.0 0.0 34.385447050020396" Properties=species:S:1:pos:R:3:initial_magmoms:R:1 pbc="T T T"
Si       2.09240230      -0.41961248      -0.94319334       0.00000000
Si      -0.11489337       0.17657708       2.32775852       0.00000000
Si      -1.55224152      -1.71495323      -0.39257887       0.00000000
Si      -0.84313782       2.19763503      -0.39811493       0.00000000
Si      -2.53226421      -0.00489026       2.39377862       0.00000000
Si      -2.68257204       1.98379620       1.08537724       0.00000000
Si      -2.12869575      -1.14281585      -2.55583732       0.00000000
Si       3.19675516       1.68858882      -0.64410855       0.00000000
Si       1.78968197      -0.51838201      -3.26008606       0.00000000
Si      -0.57101337      -3.82082669      -0.39357605       0.00000000
