10
Lattice="16.28999089631971 0.0 0.0 0.0 16.28999089631971 0.0 0.0 0.0 34.385447050020396" Properties=species:S:1:pos:R:3:initial_magmoms:R:1 pbc="T T T"
Si       1.15250121      -1.43661577       1.43301431       0.00000000
Si       0.11489337      -0.17657708      -2.32775852       0.00000000
Si       0.68356098       2.12715472       0.82490734       0.00000000
Si      -2.41737084      -0.18146734       0.06602010       0.00000000
Si      -2.56767867       1.80721912      -1.24238128       0.00000000
Si      -0.18692775       1.68553282       2.95171720       0.00000000
Si      -0.72824445       2.02105795      -2.72587345       0.00000000
Si      -1.43734815      -1.89153031      -2.72033739       0.00000000
Si       1.33174008      -0.08672633       3.48558594       0.00000000
Si      -3.16312704      -2.01302113      -1.19245358       0.00000000
