10
Lattice="16.28999089631971 0.0 0.0 0.0 16.28999089631971 0.0 0.0 0.0 34.385447050020396" Properties=species:S:1:pos:R:3:initial_magmoms:R:1 pbc="T T T"
Si      -0.87048873      -0.44162190       2.12680986       0.00000000
Si      -1.00279611       1.96806006      -0.85234694       0.00000000
Si      -0.68356098      -2.12715472      -0.82490734       0.00000000
Si       2.25805531       0.76742190      -0.26339267       0.00000000
Si       0.64817910      -2.21388105       2.66067861       0.00000000
Si      -0.18334395       1.84972950      -3.03513634       0.00000000
Si       2.08649718       1.30416111      -2.58190151       0.00000000
Si       0.46894023      -3.56377049       0.60810697       0.00000000
Si      -0.58893237       1.67084901       3.22160872       0.00000000
Si       2.07102005       2.99838627       0.57379028       0.00000000
