10
Lattice="16.28999089631971 0.0 0.0 0.0 16.28999089631971 0.0 0.0 0.0 34.385447050020396" Properties=species:S:1:pos:R:3:initial_magmoms:R:1 pbc="T T T"
Si       1.34793234       1.32506118       1.36540560       0.00000000
Si       1.42366455      -1.29502242      -1.32486514       0.00000000
Si      -1.36625859      -1.38803832       1.35983516       0.00000000
Si      -1.07922879       1.57817520      -1.51375138       0.00000000
Si      -1.98273735      -0.36890334      -2.63360177       0.00000000
Si      -0.39491847      -2.18095407      -2.77578881       0.00000000
Si      -2.71070487       2.68825725      -0.02535928       0.00000000
Si      -0.00474039       2.68799661       2.72067437       0.00000000
Si       2.71327985       2.69946477      -0.01365447       0.00000000
Si       2.70980892      -0.02661786       2.72462870       0.00000000
