10
Lattice="16.28999089631971 0.0 0.0 0.0 16.28999089631971 0.0 0.0 0.0 34.385447050020396" Properties=species:S:1:pos:R:3:initial_magmoms:R:1 pbc="T T T"
Si      -2.38019706       0.02959893       0.05381325       0.00000000
Si       0.70462395       1.42092783       1.80430857       0.00000000
Si       0.62905464      -2.06827614       1.06275161       0.00000000
Si       0.91134405       0.29985003      -2.26287315       0.00000000
Si       2.77777147       2.22242841       1.01327092       0.00000000
Si      -0.19039752      -1.94994558       3.24554100       0.00000000
Si       0.91647540       0.02694366       3.75303610       0.00000000
Si      -3.24754182      -1.72597437      -1.24753910       0.00000000
Si      -0.09708840      -1.19237913      -3.85708652       0.00000000
Si      -3.51789066       1.93323204      -0.77222880       0.00000000
