10
Lattice="16.28999089631971 0.0 0.0 0.0 16.28999089631971 0.0 0.0 0.0 34.385447050020396" Properties=species:S:1:pos:R:3:initial_magmoms:R:1 pbc="T T T"
Si      -1.10687292      -1.97688924      -0.50749510       0.00000000
Si      -0.99738783       1.18819260       1.72790407       0.00000000
Si       1.96694324      -0.94656303       0.91864212       0.00000000
Si      -0.21185145       1.39398417      -1.94872753       0.00000000
Si      -0.28742076      -2.09521980      -2.69028450       0.00000000
Si      -1.50907302       3.14794476      -0.85667951       0.00000000
Si       3.56849459       0.67681692       0.21741930       0.00000000
Si       1.45980784      -1.25942877       3.22924229       0.00000000
Si      -2.88750024       2.27323692       0.87851428       0.00000000
Si       0.72451404       2.44016055       2.80055869       0.00000000
