10
Lattice="16.28999089631971 0.0 0.0 0.0 16.28999089631971 0.0 0.0 0.0 34.385447050020396" Properties=species:S:1:pos:R:3:initial_magmoms:R:1 pbc="T T T"
Si       1.32095718       1.35676152       1.34577838       0.00000000
Si      -1.34411030      -1.34477208       1.36713175       0.00000000
Si       1.35597090      -1.35628911      -1.35379019       0.00000000
Si      -1.35600200       1.35695700      -1.35372142       0.00000000
Si       2.68840494       0.01223379       2.61381122       0.00000000
Si      -0.14993927       2.57906538       2.73006848       0.00000000
Si       0.00043720      -2.71492398      -2.71077823       0.00000000
Si       2.71549521      -0.00004887      -2.71033122       0.00000000
Si      -2.71501154       0.00009774      -2.71088139       0.00000000
Si       0.00055367       2.71498914      -2.71112209       0.00000000
