10
Lattice="16.28999089631971 0.0 0.0 0.0 16.28999089631971 0.0 0.0 0.0 34.385447050020396" Properties=species:S:1:pos:R:3:initial_magmoms:R:1 pbc="T T T"
Si       0.99842292      -1.56284631       1.46250676       0.00000000
Si      -1.48082616       1.55602080       1.07660895       0.00000000
Si       1.35659929       0.93921624      -1.79127648       0.00000000
Si      -0.71793288      -2.73768111      -0.35626782       0.00000000
Si      -2.50716132       1.98410571      -1.06660278       0.00000000
Si       1.25074198      -1.08395289      -2.97664666       0.00000000
Si      -0.90207504      -2.09862441      -2.63942839       0.00000000
Si       2.25412779      -0.00995319       2.71972331       0.00000000
Si      -2.17838025      -0.10231749      -2.95893814       0.00000000
Si       1.52429832      -3.36810411      -0.05278169       0.00000000
