10
Lattice="16.28999089631971 0.0 0.0 0.0 16.28999089631971 0.0 0.0 0.0 34.385447050020396" Properties=species:S:1:pos:R:3:initial_magmoms:R:1 pbc="T T T"
Si      -1.35381303       1.36089918       1.36352128       0.00000000
Si       1.36368477      -1.35648459       1.36200832       0.00000000
Si      -1.34227971      -1.35622395      -1.38402533       0.00000000
Si       1.35606105       1.37551131      -1.37147120       0.00000000
Si       0.28919637      -2.46630600      -2.87241743       0.00000000
Si      -2.70998811       2.71298547       0.00797743       0.00000000
Si      -2.71270854      -2.71523349      -0.00048140       0.00000000
Si      -2.71155195       0.00055386       2.72068125       0.00000000
Si       0.00381186      -2.71445157       2.72016547       0.00000000
Si       2.71635750      -2.71942002       0.00673955       0.00000000
