10
Lattice="16.28999089631971 0.0 0.0 0.0 16.28999089631971 0.0 0.0 0.0 34.385447050020396" Properties=species:S:1:pos:R:3:initial_magmoms:R:1 pbc="T T T"
Si      -1.67995512       0.99201213       1.35172019       0.00000000
Si       1.04568884      -1.72851561       1.35087087       0.00000000
Si      -1.16729253      -1.43555625      -1.67427791       0.00000000
Si       2.01082687       1.72915092      -0.11680399       0.00000000
Si      -0.32412213       2.34049833       2.72958708       0.00000000
Si       2.40347451      -0.39180708       2.73185652       0.00000000
Si      -3.06395352       2.35080990      -0.18382814       0.00000000
Si       2.56766142      -3.00153024      -0.03116355       0.00000000
Si      -2.74681980      -2.84980518      -0.14922605       0.00000000
Si       1.03729833       3.65979285       1.32223809       0.00000000
