10
Lattice="16.28999089631971 0.0 0.0 0.0 16.28999089631971 0.0 0.0 0.0 34.385447050020396" Properties=species:S:1:pos:R:3:initial_magmoms:R:1 pbc="T T T"
Si       1.35552415       1.35752715       1.35788206       0.00000000
Si      -1.35848826      -1.35775521       1.35853539       0.00000000
Si       1.36239690      -1.36645407      -1.35354949       0.00000000
Si      -1.36519974       1.36585134      -1.35581893       0.00000000
Si       2.71268315      -2.71523349       0.00247575       0.00000000
Si      -2.71340901      -2.71463076      -0.00020631       0.00000000
Si       2.71478456       2.71437012      -0.00120349       0.00000000
Si      -2.71494027       2.71477737       0.00202874       0.00000000
Si       2.71429586      -0.00048870       2.71545466       0.00000000
Si      -0.00105122       2.71480995       2.71552343       0.00000000
