10
Lattice="16.28999089631971 0.0 0.0 0.0 16.28999089631971 0.0 0.0 0.0 34.385447050020396" Properties=species:S:1:pos:R:3:initial_magmoms:R:1 pbc="T T T"
Si       0.95607639       1.51482339      -1.47541159       0.00000000
Si      -0.19808640       1.27237932       1.93707086       0.00000000
Si      -1.60526547      -1.05958305      -1.41503071       0.00000000
Si       1.61491145      -1.37590227       1.09858126       0.00000000
Si      -2.25140832       0.60088923       2.78185299       0.00000000
Si       2.34335464       0.25513398      -2.81087433       0.00000000
Si       2.31977649       2.84265387      -0.19781959       0.00000000
Si      -0.36494487      -2.45234547      -2.80179656       0.00000000
Si      -2.91180492      -1.56924828       1.77339604       0.00000000
Si      -2.42404974      -2.87668368      -0.16673513       0.00000000
