10
Lattice="16.28999089631971 0.0 0.0 0.0 16.28999089631971 0.0 0.0 0.0 34.385447050020396" Properties=species:S:1:pos:R:3:initial_magmoms:R:1 pbc="T T T"
Si       0.73774152      -1.02154590       1.96660797       0.00000000
Si      -0.81686205      -1.85921028      -1.15827443       0.00000000
Si       1.91565513       0.96523137      -0.99178000       0.00000000
Si      -1.85057658       1.68122574       0.07265649       0.00000000
Si       0.21198177       1.15077447       2.56329897       0.00000000
Si      -2.18430981      -0.51468255      -2.42630727       0.00000000
Si       0.57234915       2.20424877      -2.43930498       0.00000000
Si      -0.86363064       3.43859094      -1.13434215       0.00000000
Si      -3.65520626       0.70762131      -1.04201717       0.00000000
Si       2.74776462       2.69281845       0.44666721       0.00000000
