10
Lattice="16.28999089631971 0.0 0.0 0.0 16.28999089631971 0.0 0.0 0.0 34.385447050020396" Properties=species:S:1:pos:R:3:initial_magmoms:R:1 pbc="T T T"
Si       1.02633516      -0.42808491       2.14321173       0.00000000
Si      -2.23712199       1.07527032       0.25235494       0.00000000
Si       1.30458465       1.85719032      -1.09885635       0.00000000
Si       0.32878107      -2.08642320      -1.89233537       0.00000000
Si       2.50716132      -1.98410571       1.06660278       0.00000000
Si      -0.74914452       2.11950819      -2.59311117       0.00000000
Si       1.30070763      -0.62043723      -3.41138211       0.00000000
Si       3.02260950       0.63153072      -2.33872749       0.00000000
Si      -1.83899439      -2.90859579      -1.85471766       0.00000000
Si       3.86376061      -1.04488947      -0.72467370       0.00000000
