10
Lattice="16.28999089631971 0.0 0.0 0.0 16.28999089631971 0.0 0.0 0.0 34.385447050020396" Properties=species:S:1:pos:R:3:initial_magmoms:R:1 pbc="T T T"
Si      -1.36150191      -1.34983827      -1.36764754       0.00000000
Si       1.35782037       1.36329678      -1.37163625       0.00000000
Si       1.33263603      -1.45694502       1.30571931       0.00000000
Si      -1.36256076       1.39854523       1.39120158       0.00000000
Si       2.69633613      -0.12911454       2.58331131       0.00000000
Si       2.68212148       2.72730016      -0.01114089       0.00000000
Si      -2.71199178      -2.71239903       0.00859637       0.00000000
Si      -2.71612944       2.71969273      -0.00897461       0.00000000
Si       2.71991428      -2.71663443      -0.02974343       0.00000000
Si      -0.00060273      -2.71235016      -2.72666432       0.00000000
