10
Lattice="16.28999089631971 0.0 0.0 0.0 16.28999089631971 0.0 0.0 0.0 34.385447050020396" Properties=species:S:1:pos:R:3:initial_magmoms:R:1 pbc="T T T"
Si      -1.35584113      -1.34778573       1.39226409       0.00000000
Si       1.35338949       1.37883447       1.38418351       0.00000000
Si      -1.74848878       0.77317227      -1.45639642       0.00000000
Si       1.50024384      -1.36365219      -1.40998980       0.00000000
Si      -2.71362681      -2.68449426       0.01127843       0.00000000
Si       2.71625976      -2.70852201       0.04007970       0.00000000
Si      -2.72201732       2.70381420      -0.01735434       0.00000000
Si       2.70122409       2.73092076      -0.01085893       0.00000000
Si      -0.00555489      -2.69656515       2.74828934       0.00000000
Si       2.70982521       0.01474245       2.74529780       0.00000000
