10
Lattice="16.28999089631971 0.0 0.0 0.0 16.28999089631971 0.0 0.0 0.0 34.385447050020396" Properties=species:S:1:pos:R:3:initial_magmoms:R:1 pbc="T T T"
Si       1.35653346       1.35614915       1.35791645       0.00000000
Si      -1.35712642       1.35774720      -1.35729751       0.00000000
Si       1.35780408      -1.35663011      -1.35860416       0.00000000
Si      -1.35943797      -1.35933425       1.35760698       0.00000000
Si       2.71423980       0.00177038      -2.71222242       0.00000000
Si       0.00172674      -2.71269116       2.71380415       0.00000000
Si      -2.71400264       0.00217063       2.71318522       0.00000000
Si      -2.71496026       2.71488339      -0.00024070       0.00000000
Si      -2.71521676      -2.71484144      -0.00006877       0.00000000
Si       2.71510317       2.71498113       0.00065332       0.00000000
