10
Lattice="16.28999089631971 0.0 0.0 0.0 16.28999089631971 0.0 0.0 0.0 34.385447050020396" Properties=species:S:1:pos:R:3:initial_magmoms:R:1 pbc="T T T"
Si      -1.80462968      -0.97360443      -1.11467366       0.00000000
Si       0.98694594       1.75736520      -1.20699864       0.00000000
Si      -1.01964486       1.59871689       1.40925395       0.00000000
Si       1.85057658      -1.68122574      -0.07265649       0.00000000
Si       2.06255835      -0.53045127       2.49064248       0.00000000
Si      -0.33373323      -2.19590829      -2.49896376       0.00000000
Si      -1.67277842       0.00201996       3.05191644       0.00000000
Si       2.42292573       0.52302303      -2.51196147       0.00000000
Si       1.04596461       2.80477962       1.89377955       0.00000000
Si       2.73383667       2.52882702       0.19300562       0.00000000
