10
Lattice="16.28999089631971 0.0 0.0 0.0 16.28999089631971 0.0 0.0 0.0 34.385447050020396" Properties=species:S:1:pos:R:3:initial_magmoms:R:1 pbc="T T T"
Si      -2.05661969       0.12662217      -0.99511539       0.00000000
Si       1.67871708      -0.40584906      -1.55638936       0.00000000
Si       0.67324941       2.32266078       0.09345970       0.00000000
Si      -0.59438952      -1.51353648       1.81472737       0.00000000
Si      -1.40348613       1.72331910      -2.63777789       0.00000000
Si      -3.28164398       0.59948829       0.95625982       0.00000000
Si       0.66212334       2.92938183      -2.15325228       0.00000000
Si       0.86084505      -3.31897347       1.40588417       0.00000000
Si       2.91286377       2.25784287       0.71226055       0.00000000
Si      -2.69017037      -2.20835385      -1.50082245       0.00000000
