10
Lattice="16.28999089631971 0.0 0.0 0.0 16.28999089631971 0.0 0.0 0.0 34.385447050020396" Properties=species:S:1:pos:R:3:initial_magmoms:R:1 pbc="T T T"
Si       1.23597117       0.16369821       2.00893648       0.00000000
Si       0.94047057       0.37823751      -2.18457744       0.00000000
Si      -1.23250140      -2.02597101       0.45959614       0.00000000
Si      -1.63662372       1.78316856       0.00570799       0.00000000
Si      -2.28610113      -1.17851634       2.41434113       0.00000000
Si       2.50908354      -1.79497881       1.77900087       0.00000000
Si      -1.07041590       1.01792952      -3.32545283       0.00000000
Si      -0.51937407      -0.02907765       3.63488764       0.00000000
Si      -2.71240718      -0.50986071      -2.52616266       0.00000000
Si      -3.60672722       0.76336569      -0.76432014       0.00000000
