10
Lattice="10.86 0.0 0.0 0.0 10.86 0.0 0.0 0.0 10.86" Properties=species:S:1:pos:R:3:initial_magmoms:R:1 pbc="T T T"
Si       1.51073460      -1.01689782      -1.43757078       0.00000000
Si      -0.97816020      -1.43353086       1.75851636       0.00000000
Si      -1.20426540       1.69810218      -1.43757078       0.00000000
Si       1.51073460       1.69810218       1.27742922       0.00000000
Si      -2.20722984      -2.35971510       0.00736308       0.00000000
Si      -2.42265966       0.07077462       2.68605810       0.00000000
Si       2.67392748      -2.50072134      -0.02167656       0.00000000
Si       0.15323460      -2.37439782      -2.79507078       0.00000000
Si      -2.56176540       0.34060218      -2.79507078       0.00000000
Si       2.83121286       0.27669108       2.64348690       0.00000000
