10
Lattice="10.86 0.0 0.0 0.0 10.86 0.0 0.0 0.0 10.86" Properties=species:S:1:pos:R:3:initial_magmoms:R:1 pbc="T T T"
Si      -1.16319288       1.48382352      -1.41589422       0.00000000
Si       1.55180712      -1.23117648      -1.41589422       0.00000000
Si       1.55180712       1.48382352       1.29910578       0.00000000
Si      -2.67392748       2.50072134       0.02167656       0.00000000
Si      -0.00563634      -2.57978214       2.61838944       0.00000000
Si      -2.59706040      -2.60758374      -0.15685098       0.00000000
Si      -2.52069288       0.12632352      -2.77339422       0.00000000
Si       0.19430712      -2.58867648      -2.77339422       0.00000000
Si       0.15728538       2.77741242       2.66516346       0.00000000
Si       2.90930712      -2.58867648      -0.05839422       0.00000000
