10
Lattice="16.28999089631971 0.0 0.0 0.0 16.28999089631971 0.0 0.0 0.0 34.51877397758722" Properties=species:S:1:pos:R:3:initial_magmoms:R:1 pbc="T T T"
Si       0.29402635      -0.01808190       2.30758133       0.00000000
Si      -2.24912676       0.24606045      -0.60725461       0.00000000
Si       1.24062197       1.92709071      -0.55323270       0.00000000
Si       0.59399041      -2.18895246      -0.75696262       0.00000000
Si      -2.88378516      -1.96452513       0.04311397       0.00000000
Si       2.61756680       0.53861256       2.37699862       0.00000000
Si      -2.19178596       0.86219712      -2.89985478       0.00000000
Si       1.26618097       2.02676922      -2.88428681       0.00000000
Si       3.42473630       1.49543829       0.35827056       0.00000000
Si      -0.67193806      -3.66080283       0.63721692       0.00000000
