10
Lattice="16.28999089631971 0.0 0.0 0.0 16.28999089631971 0.0 0.0 0.0 34.51877397758722" Properties=species:S:1:pos:R:3:initial_magmoms:R:1 pbc="T T T"
Si       1.35933534       1.34791605       1.37826983       0.00000000
Si       1.48774941      -1.24321696      -1.34416181       0.00000000
Si      -1.35262386      -1.37238526       1.37747590       0.00000000
Si      -1.38251601       1.32437700      -1.53564791       0.00000000
Si       0.13214448      -2.40582286      -2.87787809       0.00000000
Si      -2.70876636       2.69630451      -0.00501903       0.00000000
Si       2.70681156       2.71518462       0.00911987       0.00000000
Si      -2.70914103      -2.72204990       0.00333106       0.00000000
Si       0.00557118       2.70213633       2.73813769       0.00000000
Si      -2.70914103      -0.01265733       2.73758539       0.00000000
