10
Lattice="16.28999089631971 0.0 0.0 0.0 16.28999089631971 0.0 0.0 0.0 34.51877397758722" Properties=species:S:1:pos:R:3:initial_magmoms:R:1 pbc="T T T"
Si       1.41437925      -1.20517085       1.35527686       0.00000000
Si      -1.34628705      -1.35738284      -1.34764821       0.00000000
Si       1.36575360       1.36113213      -1.34119319       0.00000000
Si      -1.34128602       1.27334532       1.46832591       0.00000000
Si       0.39008034       2.11790037       2.85536006       0.00000000
Si      -0.04189788      -2.25132917       2.81935696       0.00000000
Si       2.33339589       0.44529204       2.79381305       0.00000000
Si      -2.69651628      -2.70507083       0.02250625       0.00000000
Si      -2.70269019      -0.00082590      -2.70327026       0.00000000
Si      -2.69926929       2.70882012       0.03672800       0.00000000
