10
Lattice="16.28999089631971 0.0 0.0 0.0 16.28999089631971 0.0 0.0 0.0 34.51877397758722" Properties=species:S:1:pos:R:3:initial_magmoms:R:1 pbc="T T T"
Si      -1.35716877      -1.35738054      -1.35651954       0.00000000
Si      -1.35729909       1.35742941       1.35772770       0.00000000
Si       1.35736425      -1.35729909       1.35800385       0.00000000
Si       1.35826020       1.35772263      -1.35734799       0.00000000
Si      -0.00340461      -2.71160082      -2.71638740       0.00000000
Si      -2.71433754       0.00109143       2.71441983       0.00000000
Si      -2.71510317      -2.71466334      -0.00006904       0.00000000
Si       2.71471221      -2.71520091       0.00044874       0.00000000
Si       2.71625976      -0.00004887      -2.71404012       0.00000000
Si       2.71572219       0.00019548       2.71459242       0.00000000
