10
Lattice="16.28999089631971 0.0 0.0 0.0 16.28999089631971 0.0 0.0 0.0 34.51877397758722" Properties=species:S:1:pos:R:3:initial_magmoms:R:1 pbc="T T T"
Si       1.35408996      -1.35347094       1.36111054       0.00000000
Si      -1.35744570      -1.35707103      -1.35720991       0.00000000
Si       1.35734796       1.35819504      -1.35696828       0.00000000
Si      -1.35979146       1.36114353       1.36287100       0.00000000
Si      -0.01166364      -2.71460307       2.70230373       0.00000000
Si       0.01743030       2.69092881       2.73254219       0.00000000
Si      -0.00013032      -2.71437501      -2.71438531       0.00000000
Si       2.71469592       0.00029322      -2.71452338       0.00000000
Si      -2.71435383      -2.71542897      -0.00096653       0.00000000
Si      -2.71511946       0.00083079      -2.71504117       0.00000000
