10
Lattice="16.28999089631971 0.0 0.0 0.0 16.28999089631971 0.0 0.0 0.0 34.51877397758722" Properties=species:S:1:pos:R:3:initial_magmoms:R:1 pbc="T T T"
Si      -1.35456237       1.35544203      -1.36342330       0.00000000
Si       1.37722176       1.32978528       1.36967120       0.00000000
Si       1.35979146      -1.36114353      -1.36287100       0.00000000
Si      -1.35114147      -1.36692648       1.37616073       0.00000000
Si       0.05426199       2.72008791       2.69346692       0.00000000
Si      -2.70927135      -2.71824714      -0.00127720       0.00000000
Si       2.71388142      -2.71461447      -0.00176046       0.00000000
Si      -2.71507059       2.71352304       0.00020711       0.00000000
Si       2.71841004       2.71161711      -0.00334832       0.00000000
Si       0.00247608       2.71178001      -2.72011543       0.00000000
