10
Lattice="16.28999089631971 0.0 0.0 0.0 16.28999089631971 0.0 0.0 0.0 34.51877397758722" Properties=species:S:1:pos:R:3:initial_magmoms:R:1 pbc="T T T"
Si      -1.99410777      -1.09216305      -0.42765333       0.00000000
Si      -0.41482485       0.80685999       2.14924363       0.00000000
Si       1.80740808      -1.32014160      -0.70238841       0.00000000
Si       0.52558056       2.10603636      -1.00718935       0.00000000
Si      -1.45741743      -1.12127328      -2.79198356       0.00000000
Si      -2.26085652       2.06550684       1.40056552       0.00000000
Si       1.70903277       1.79769924       2.32704993       0.00000000
Si       2.49979824       2.37469104       0.14301136       0.00000000
Si      -1.25191908       3.37492962      -0.28564301       0.00000000
Si       3.46773375       0.46305954      -0.96259107       0.00000000
