10
Lattice="16.28999089631971 0.0 0.0 0.0 16.28999089631971 0.0 0.0 0.0 34.51877397758722" Properties=species:S:1:pos:R:3:initial_magmoms:R:1 pbc="T T T"
Si       0.07597656       0.59932539      -2.20937536       0.00000000
Si      -1.77749964       1.26889326       0.72154634       0.00000000
Si       1.97421768       0.26865468       1.15020071       0.00000000
Si      -0.52558056      -2.10603636       1.00718935       0.00000000
Si      -1.79496252      -0.96050727      -2.55055912       0.00000000
Si      -2.76853437       0.94037283      -1.49331752       0.00000000
Si       2.94215319      -1.64297682       0.04459828       0.00000000
Si      -0.94040541      -1.29917637       3.15643298       0.00000000
Si       1.18345221      -0.30833712       3.33423928       0.00000000
Si       1.28182752      -3.42617796       0.30480094       0.00000000
