10
Lattice="16.28999089631971 0.0 0.0 0.0 16.28999089631971 0.0 0.0 0.0 34.51877397758722" Properties=species:S:1:pos:R:3:initial_magmoms:R:1 pbc="T T T"
Si      -1.64464361      -1.62942191       0.54108208       0.00000000
Si       1.39916439       0.48773889       1.86021777       0.00000000
Si       1.40827050      -0.36738837      -1.91354930       0.00000000
Si      -1.20324456       2.07358668      -0.20600816       0.00000000
Si       1.59897753       1.94331555      -2.48966796       0.00000000
Si      -0.16515291       1.41253848       3.38132291       0.00000000
Si      -1.15717481      -3.39119423      -0.95882852       0.00000000
Si      -1.57339246       2.75048505       2.04123432       0.00000000
Si      -1.36800651      -2.28669965       2.77078902       0.00000000
Si      -0.04887000       3.48223185      -1.68848677       0.00000000
