10
Lattice="16.28999089631971 0.0 0.0 0.0 16.28999089631971 0.0 0.0 0.0 34.51877397758722" Properties=species:S:1:pos:R:3:initial_magmoms:R:1 pbc="T T T"
Si      -0.12636153       2.14669620       0.78050443       0.00000000
Si       2.02383702      -0.68874120       0.90994991       0.00000000
Si      -0.56027826      -0.21209580      -2.26381150       0.00000000
Si      -1.57315788      -1.64388906       0.69741770       0.00000000
Si      -0.36144252      -3.34172245      -0.41101527       0.00000000
Si       1.62803889      -2.99605680       0.84139559       0.00000000
Si      -2.86726806       0.35026758      -2.09501460       0.00000000
Si      -0.09156609      -2.50877403      -2.61569608       0.00000000
Si       1.87545141       3.14108667       0.19378851       0.00000000
Si       1.97837163       0.09783774       3.19933984       0.00000000
