10
Lattice="16.28999089631971 0.0 0.0 0.0 16.28999089631971 0.0 0.0 0.0 34.51877397758722" Properties=species:S:1:pos:R:3:initial_magmoms:R:1 pbc="T T T"
Si       0.32612580      -2.36144727      -0.18363998       0.00000000
Si       1.27032678       0.75357540       1.88220624       0.00000000
Si      -2.23112727       0.79785162       0.39624123       0.00000000
Si       0.77973714       1.35941679      -1.86007969       0.00000000
Si       1.36329381      -0.48669633      -3.25857408       0.00000000
Si      -1.70701281       3.08154672       0.97215277       0.00000000
Si       0.29302452       2.88730476       2.26215460       0.00000000
Si       2.67094098      -2.65166991      -0.42209580       0.00000000
Si      -0.76056381      -1.47753558      -3.43638039       0.00000000
Si      -3.17839077      -0.60287661       2.10606061       0.00000000
