10
Lattice="16.28999089631971 0.0 0.0 0.0 16.28999089631971 0.0 0.0 0.0 34.51877397758722" Properties=species:S:1:pos:R:3:initial_magmoms:R:1 pbc="T T T"
Si      -2.00350710       1.01729421      -0.39655190       0.00000000
Si       0.12636153      -2.14669620      -0.78050443       0.00000000
Si       2.00181294       0.99439047      -0.58671593       0.00000000
Si      -1.02960945       0.54509598       2.19194337       0.00000000
Si      -3.10692654      -0.31882788       1.22814415       0.00000000
Si      -1.56385629       2.97111681       0.83055668       0.00000000
Si       2.15019855      -2.83543740       0.12944547       0.00000000
Si       1.47919716       1.94277798      -2.71169284       0.00000000
Si       0.08829180      -1.06626195       3.53941899       0.00000000
Si       2.10473316      -2.04885846       2.41883540       0.00000000
