10
Lattice="16.28999089631971 0.0 0.0 0.0 16.28999089631971 0.0 0.0 0.0 34.51877397758722" Properties=species:S:1:pos:R:3:initial_magmoms:R:1 pbc="T T T"
Si       1.35553977       1.35477414       1.39754858       0.00000000
Si      -1.35971001      -1.35863487       1.39668561       0.00000000
Si       1.46235330      -1.43677800      -1.38279870       0.00000000
Si      -1.31994612       1.43873280      -1.59184796       0.00000000
Si      -2.71388142      -2.70951570       0.00301004       0.00000000
Si      -2.69724933       2.73035061       0.01584413       0.00000000
Si       2.71735119       2.71757925       0.01398702       0.00000000
Si       2.71388142       0.00011403       2.75983275       0.00000000
Si      -2.71477737       0.00021177       2.75896978       0.00000000
Si      -0.00078192      -2.71507059       2.75931497       0.00000000
