10
Lattice="16.28999089631971 0.0 0.0 0.0 16.28999089631971 0.0 0.0 0.0 34.51877397758722" Properties=species:S:1:pos:R:3:initial_magmoms:R:1 pbc="T T T"
Si       0.27663711      -0.65727774       2.22970693       0.00000000
Si       0.48746880      -1.76177232      -1.49991061       0.00000000
Si       1.64464361       1.62942191      -0.54108208       0.00000000
Si      -2.24922743       0.77044532      -0.15146846       0.00000000
Si       0.09797816      -0.87157269      -3.64970653       0.00000000
Si       0.44139905       3.70300859      -0.74709024       0.00000000
Si       0.08070424       1.22854130       3.61660301       0.00000000
Si      -1.03391198      -2.59415874       2.64728077       0.00000000
Si      -3.32723447       0.33407206       1.94927626       0.00000000
Si       2.42405495      -1.42958664       2.66284875       0.00000000
