10
Lattice="16.28999089631971 0.0 0.0 0.0 16.28999089631971 0.0 0.0 0.0 34.51877397758722" Properties=species:S:1:pos:R:3:initial_magmoms:R:1 pbc="T T T"
Si       1.32295977      -1.39030263      -1.32379572       0.00000000
Si       0.97345782       1.69174908       1.28099242       0.00000000
Si      -1.40597361       1.34877942      -1.32893902       0.00000000
Si      -1.68047640      -1.19174382       1.17356993       0.00000000
Si      -1.02581388       1.47515724       2.87034122       0.00000000
Si       2.46971061       0.59157135       2.76171057       0.00000000
Si       2.66414805      -0.00847080      -2.69681524       0.00000000
Si       0.46545417      -0.21874212       3.76499930       0.00000000
Si      -0.05569551       2.70915732      -2.69564160       0.00000000
Si      -0.05426199      -2.72008791      -2.69346692       0.00000000
