10
Lattice="16.28999089631971 0.0 0.0 0.0 16.28999089631971 0.0 0.0 0.0 34.51877397758722" Properties=species:S:1:pos:R:3:initial_magmoms:R:1 pbc="T T T"
Si       1.74687444       1.53062469      -0.31550177       0.00000000
Si      -0.22504635       0.19404648       2.34241079       0.00000000
Si       0.97730226      -2.13372936      -0.37994836       0.00000000
Si      -2.00003733       0.19424196      -1.29000182       0.00000000
Si      -0.29302452      -2.88730476      -2.26215460       0.00000000
Si       0.61501266       3.56741226      -0.78243749       0.00000000
Si       3.26256120       0.34834536      -1.79190508       0.00000000
Si      -2.52415179      -2.08945314      -1.86591337       0.00000000
Si       3.23146359      -1.85916141      -0.94374381       0.00000000
Si       1.49991804      -3.08211687       1.74502856       0.00000000
