10
Lattice="16.28999089631971 0.0 0.0 0.0 16.28999089631971 0.0 0.0 0.0 34.51877397758722" Properties=species:S:1:pos:R:3:initial_magmoms:R:1 pbc="T T T"
Si       1.35948195      -1.35637056       1.36228418       0.00000000
Si      -1.35747828       1.35920502       1.36280196       0.00000000
Si      -1.37811771      -1.33791399      -1.36703741       0.00000000
Si       1.37700999       1.37376828      -1.38084148       0.00000000
Si      -2.55183013       0.24130377      -2.81676115       0.00000000
Si      -2.71677778      -2.71067229       0.00189853       0.00000000
Si       2.71373481       2.71401174       0.00776673       0.00000000
Si      -2.71541594       2.71420722       0.00431485       0.00000000
Si       2.71454931      -2.71521720       0.00000000       0.00000000
Si       0.00019548      -2.71393029       2.71987380       0.00000000
