10
Lattice="16.28999089631971 0.0 0.0 0.0 16.28999089631971 0.0 0.0 0.0 34.51877397758722" Properties=species:S:1:pos:R:3:initial_magmoms:R:1 pbc="T T T"
Si       1.35502826      -1.35576783       1.35910845       0.00000000
Si      -1.35956312       1.35905841       1.35852163       0.00000000
Si      -1.36210205      -1.35705474      -1.36143156       0.00000000
Si       1.35540293       1.35319401      -1.38349597       0.00000000
Si       2.71154543      -2.71549576      -0.00100105       0.00000000
Si       2.71180607       0.00174303       2.71611125       0.00000000
Si      -2.71580105      -2.71300990      -0.00176046       0.00000000
Si      -0.00302505      -2.71326403       2.71628384       0.00000000
Si       2.71183865       2.71842633      -0.00303765       0.00000000
Si      -0.00312605       2.71647153       2.71621480       0.00000000
