10
Lattice="16.28999089631971 0.0 0.0 0.0 16.28999089631971 0.0 0.0 0.0 34.51877397758722" Properties=species:S:1:pos:R:3:initial_magmoms:R:1 pbc="T T T"
Si      -1.27177333       1.33180524       1.42082805       0.00000000
Si       2.04260310      -0.62670888       0.98654711       0.00000000
Si       0.74849292       1.36744776      -1.80588519       0.00000000
Si      -0.85157604      -2.07670296      -0.84529621       0.00000000
Si      -1.80449380      -1.36767582      -2.89018952       0.00000000
Si       0.38247291       2.84504850       2.29777799       0.00000000
Si      -0.40570734       0.44574327      -3.66655170       0.00000000
Si       3.05548272       0.80508438      -1.97468209       0.00000000
Si      -2.43586718      -2.73384319       0.80960378       0.00000000
Si       3.61576098       1.01718018       0.28912941       0.00000000
