10
Lattice="16.28999089631971 0.0 0.0 0.0 16.28999089631971 0.0 0.0 0.0 34.51877397758722" Properties=species:S:1:pos:R:3:initial_magmoms:R:1 pbc="T T T"
Si       0.55690623       2.23259241       0.47950056       0.00000000
Si      -0.80716950      -0.95682573       2.01872807       0.00000000
Si      -2.18411433       0.43165242      -0.91150326       0.00000000
Si       1.90889478      -0.92506023      -1.44316171       0.00000000
Si       0.82678266       3.06554084      -1.72518025       0.00000000
Si      -3.42473630      -1.49543829      -0.35827056       0.00000000
Si       0.90319905      -2.28323898       2.89785269       0.00000000
Si      -2.15855532       0.53133093      -3.24255736       0.00000000
Si       3.76885440       0.78524316       0.96486931       0.00000000
Si      -3.13070994      -1.51352019       1.94931077       0.00000000
