10
Lattice="16.28999089631971 0.0 0.0 0.0 16.28999089631971 0.0 0.0 0.0 34.51877397758722" Properties=species:S:1:pos:R:3:initial_magmoms:R:1 pbc="T T T"
Si      -0.56334078      -0.36059544      -2.26384602       0.00000000
Si       1.13186178      -2.03678757       0.46693572       0.00000000
Si       1.84251303       1.49999949       0.08046331       0.00000000
Si      -1.90889478       0.92506023       1.44316171       0.00000000
Si       1.85995962       1.71030339       2.40803102       0.00000000
Si      -0.61501266      -3.56741226       0.78243749       0.00000000
Si       2.34167121      -1.73747511       2.45342323       0.00000000
Si       1.19032659       3.55329765      -0.88102316       0.00000000
Si      -0.97634115       1.74856860      -3.32081147       0.00000000
Si      -1.35198855       3.15765264       1.92266227       0.00000000
