10
Lattice="16.28999089631971 0.0 0.0 0.0 16.28999089631971 0.0 0.0 0.0 34.51877397758722" Properties=species:S:1:pos:R:3:initial_magmoms:R:1 pbc="T T T"
Si       1.70131131       0.87860115      -1.34847666       0.00000000
Si      -0.91901664      -1.65046289      -1.43853619       0.00000000
Si       0.95705379      -1.97406197       0.97018520       0.00000000
Si      -1.94331555       1.67260833       0.06154701       0.00000000
Si      -2.37529377      -2.69662121       0.02554391       0.00000000
Si       0.39591216       2.28297834      -2.75142397       0.00000000
Si      -2.33339589      -0.44529204      -2.79381305       0.00000000
Si      -1.00108566       3.54892311      -1.15572372       0.00000000
Si       3.47633487       1.84445154      -0.05978655       0.00000000
Si      -3.47411943      -0.95774286       1.62725043       0.00000000
