10
Lattice="16.28999089631971 0.0 0.0 0.0 16.28999089631971 0.0 0.0 0.0 34.51877397758722" Properties=species:S:1:pos:R:3:initial_magmoms:R:1 pbc="T T T"
Si      -2.00067264      -1.28129321       0.33963041       0.00000000
Si       0.12587283       1.28824578       2.04071654       0.00000000
Si       1.77466518      -1.63932949       0.14401241       0.00000000
Si       0.73326177       1.76396265      -1.49925475       0.00000000
Si      -1.62214191      -1.83471598       2.64724626       0.00000000
Si       3.00037365      -0.54068628       2.07288805       0.00000000
Si       2.38558905       1.70890245       2.29077068       0.00000000
Si       3.09612627       1.49516136      -1.47498804       0.00000000
Si      -0.18137286       3.71701962      -0.46938655       0.00000000
Si       0.92488104      -3.34949183      -1.57571388       0.00000000
