10
Lattice="16.28999089631971 0.0 0.0 0.0 16.28999089631971 0.0 0.0 0.0 34.51877397758722" Properties=species:S:1:pos:R:3:initial_magmoms:R:1 pbc="T T T"
Si       2.36286450      -0.26880129       0.02426671       0.00000000
Si      -0.04360833       0.70858242      -2.27150919       0.00000000
Si      -0.91463463       1.95305697       1.02986820       0.00000000
Si      -0.73326177      -1.76396265       1.49925475       0.00000000
Si       2.79609705       0.87324174       2.02994668       0.00000000
Si      -0.60738894      -0.47571687       3.53997129       0.00000000
Si      -1.73420082       2.36801214      -2.14337543       0.00000000
Si      -3.06818892       2.05286580       0.15792348       0.00000000
Si       2.85821082       1.56077748      -1.75472834       0.00000000
Si       2.63507040      -2.64108955      -0.07397377       0.00000000
