10
Lattice="16.28999089631971 0.0 0.0 0.0 16.28999089631971 0.0 0.0 0.0 34.51877397758722" Properties=species:S:1:pos:R:3:initial_magmoms:R:1 pbc="T T T"
Si      -1.35540293      -1.35319401       1.38349597       0.00000000
Si       1.35643572       1.36523232       1.38045832       0.00000000
Si      -1.41984129       1.30642542      -1.41258151       0.00000000
Si       1.32625035      -1.37192751      -1.53062888       0.00000000
Si       0.06882525       2.50761744      -2.75238847       0.00000000
Si       2.70876636      -2.69630451       0.00501903       0.00000000
Si      -2.71750499      -2.71024875       0.02206441       0.00000000
Si       2.71666701       2.72648988      -0.01397666       0.00000000
Si      -2.72100219       2.72712519      -0.00724895       0.00000000
Si      -0.00037467      -2.70896184       2.74260442       0.00000000
