10
Lattice="16.28999089631971 0.0 0.0 0.0 16.28999089631971 0.0 0.0 0.0 34.51877397758722" Properties=species:S:1:pos:R:3:initial_magmoms:R:1 pbc="T T T"
Si       0.97267590       1.78168617       1.14430317       0.00000000
Si      -1.75832631      -1.02794787       1.14443435       0.00000000
Si      -0.98719029       1.31388624      -1.74767239       0.00000000
Si       1.79248644      -1.65760524      -0.37724178       0.00000000
Si       2.22583302       0.40563729       2.56337077       0.00000000
Si      -0.49045932      -2.33735436       2.58142409       0.00000000
Si       2.75009409       2.58225822      -0.33102111       0.00000000
Si       0.88171254      -3.57503598       1.08201401       0.00000000
Si       3.61066221      -0.84756870       1.00278993       0.00000000
Si       2.26093797      -1.26543978      -2.88158023       0.00000000
