10
Lattice="16.28999089631971 0.0 0.0 0.0 16.28999089631971 0.0 0.0 0.0 34.51877397758722" Properties=species:S:1:pos:R:3:initial_magmoms:R:1 pbc="T T T"
Si      -1.35715248      -1.35747828       1.35672665       0.00000000
Si      -1.35715248       1.35729909      -1.35762414       0.00000000
Si       1.35705474      -1.35742941      -1.35783125       0.00000000
Si       1.35839052       1.35780408       1.35731347       0.00000000
Si       2.71445157      -0.00030951      -2.71511020       0.00000000
Si       2.71508688       2.71467963      -0.00027615       0.00000000
Si      -2.71461447       0.00004887      -2.71521376       0.00000000
Si      -2.71498914       2.71492398      -0.00055230       0.00000000
Si       0.00004887       2.71523349      -2.71469598       0.00000000
Si       2.71510317      -2.71523349      -0.00044874       0.00000000
