10
Lattice="16.28999089631971 0.0 0.0 0.0 16.28999089631971 0.0 0.0 0.0 34.51877397758722" Properties=species:S:1:pos:R:3:initial_magmoms:R:1 pbc="T T T"
Si       1.35505107      -1.35684297      -1.35983334       0.00000000
Si      -1.36146933       1.35814617      -1.35903941       0.00000000
Si       1.34270325       1.37863899       1.36445886       0.00000000
Si      -1.35433431      -1.37254653       1.36970572       0.00000000
Si       2.52216441      -0.08721666       2.74745431       0.00000000
Si      -2.67498090       0.07076376       2.68632153       0.00000000
Si       2.71182888       2.71432125      -0.00082845       0.00000000
Si       2.71329498      -2.71581993      -0.00165690       0.00000000
Si       2.71174743       0.00003258      -2.71742296       0.00000000
Si      -0.00333945      -2.71464705      -2.71714681       0.00000000
