10
Lattice="16.28999089631971 0.0 0.0 0.0 16.28999089631971 0.0 0.0 0.0 34.51877397758722" Properties=species:S:1:pos:R:3:initial_magmoms:R:1 pbc="T T T"
Si      -1.45295397      -1.12387968       1.50819512       0.00000000
Si       2.02000887      -1.06500762       0.68212587       0.00000000
Si       0.32760819       2.34668853       0.67611960       0.00000000
Si      -1.28987478      -0.12623121      -2.11507002       0.00000000
Si       1.80924885      -0.22893966       2.89215709       0.00000000
Si      -3.22379100       0.49449924       1.14540260       0.00000000
Si      -3.09643578       1.12578561      -1.14350406       0.00000000
Si       1.23678567       2.10326706       2.83033394       0.00000000
Si       3.74738418      -0.06533919      -0.62227029       0.00000000
Si      -0.20290824      -1.39577607       3.53793468       0.00000000
