10
Lattice="16.28999089631971 0.0 0.0 0.0 16.28999089631971 0.0 0.0 0.0 34.51877397758722" Properties=species:S:1:pos:R:3:initial_magmoms:R:1 pbc="T T T"
Si      -1.03589739      -1.87235631      -0.96593939       0.00000000
Si       0.46025766       1.87991487      -1.39110737       0.00000000
Si      -2.03372505       0.79185690       1.00784521       0.00000000
Si       1.79810649      -0.29453949       1.79162893       0.00000000
Si       2.95454988       1.80343332       1.20280735       0.00000000
Si       2.84218146       1.95278004      -1.25544851       0.00000000
Si      -2.61394227      -0.93889044      -2.54475996       0.00000000
Si      -0.81739962       3.66503823      -0.49831330       0.00000000
Si      -2.17163619      -3.01123908       0.78813309       0.00000000
Si      -1.45002177       2.28478653       2.92553677       0.00000000
