10
Lattice="16.28999089631971 0.0 0.0 0.0 16.28999089631971 0.0 0.0 0.0 34.51877397758722" Properties=species:S:1:pos:R:3:initial_magmoms:R:1 pbc="T T T"
Si      -2.25416133      -0.27456795       0.56379545       0.00000000
Si       0.52259949      -1.80147852      -1.43297866       0.00000000
Si       0.03109761       2.20750677      -0.84816127       0.00000000
Si       1.57804488      -0.93346587       1.57882057       0.00000000
Si      -1.73154555      -1.22295546       2.68877236       0.00000000
Si       2.21296392      -2.67043599       0.10341830       0.00000000
Si      -0.94035654       1.96659396      -2.97444990       0.00000000
Si      -1.48458915       3.38978610       0.62824204       0.00000000
Si       2.61394227       0.93889044       2.54475996       0.00000000
Si       2.29260573       2.86270686      -1.08571960       0.00000000
