10
Lattice="16.28999089631971 0.0 0.0 0.0 16.28999089631971 0.0 0.0 0.0 34.51877397758722" Properties=species:S:1:pos:R:3:initial_magmoms:R:1 pbc="T T T"
Si       1.35643707       1.35741312       1.35769318       0.00000000
Si      -1.35809500      -1.35770634       1.35790029       0.00000000
Si      -1.36018012       1.35653346      -1.36024757       0.00000000
Si       1.35956312      -1.35905841      -1.35852163       0.00000000
Si       2.71423300       2.71490769       0.00100105       0.00000000
Si       2.71379317      -0.00006516       2.71535183       0.00000000
Si       2.71459138      -2.71482624       0.00058682       0.00000000
Si      -0.00101158      -2.71441899       2.71524828       0.00000000
Si      -0.00121892       2.71423980       2.71573154       0.00000000
Si      -2.71554070      -0.00021177       2.71507568       0.00000000
