10
Lattice="16.28999089631971 0.0 0.0 0.0 16.28999089631971 0.0 0.0 0.0 34.51877397758722" Properties=species:S:1:pos:R:3:initial_magmoms:R:1 pbc="T T T"
Si      -1.35985662       1.35294966      -1.35486264       0.00000000
Si       1.35669636       1.35475785       1.35772770       0.00000000
Si      -1.35839052      -1.36023129       1.35727895       0.00000000
Si       1.35620766      -1.36287027      -1.36176639       0.00000000
Si      -0.00410508       2.69467520      -2.73051594       0.00000000
Si      -2.71485882       2.71107550       0.00117364       0.00000000
Si       2.71412577       2.71244790       0.00062134       0.00000000
Si      -0.00102627       2.71255598       2.71455790       0.00000000
Si       2.71453302      -0.00311139       2.71459242       0.00000000
Si      -2.71609686      -0.00232947       2.71500665       0.00000000
