10
Lattice="16.28999089631971 0.0 0.0 0.0 16.28999089631971 0.0 0.0 0.0 34.51877397758722" Properties=species:S:1:pos:R:3:initial_magmoms:R:1 pbc="T T T"
Si       1.36604682       1.35001517      -1.37132810       0.00000000
Si      -1.35459495      -1.36391283      -1.37119003       0.00000000
Si       1.28243025      -1.37523438       1.44882279       0.00000000
Si      -1.30510593       1.50130092       1.32873191       0.00000000
Si       2.70409113       2.70252144      -0.00762865       0.00000000
Si       2.71107954      -2.70246213      -0.00434937       0.00000000
Si      -2.70593190      -2.71015101      -0.00935459       0.00000000
Si       2.57567706       0.02686221       2.83747933       0.00000000
Si      -2.71948518       2.70647177      -0.02654495       0.00000000
Si       0.00645084       2.70451860      -2.72798571       0.00000000
