10
Lattice="16.28999089631971 0.0 0.0 0.0 16.28999089631971 0.0 0.0 0.0 34.51877397758722" Properties=species:S:1:pos:R:3:initial_magmoms:R:1 pbc="T T T"
Si      -1.35642920      -1.35558864       1.35724443       0.00000000
Si      -1.35735610       1.35747828      -1.35765866       0.00000000
Si       1.35757602      -1.35725022      -1.35776221       0.00000000
Si       1.35834165       1.35850455       1.35672665       0.00000000
Si      -2.71379317       0.00006516      -2.71535183       0.00000000
Si      -2.71480475      -2.71435383      -0.00010356       0.00000000
Si      -2.71501209       2.71430496       0.00037971       0.00000000
Si       0.00043983       2.71497285      -2.71435079       0.00000000
Si       0.00079821      -2.71476108      -2.71476502       0.00000000
Si       2.71551042       0.00003258      -2.71421271       0.00000000
