10
Lattice="16.28999089631971 0.0 0.0 0.0 16.28999089631971 0.0 0.0 0.0 34.51877397758722" Properties=species:S:1:pos:R:3:initial_magmoms:R:1 pbc="T T T"
Si       0.66505554      -1.06388361      -1.97385364       0.00000000
Si       1.47737268       1.44497187       1.17412223       0.00000000
Si       0.27995994      -1.59971058       1.75873252       0.00000000
Si      -2.29052061       0.72293391      -0.04594451       0.00000000
Si      -0.11277567       1.60788964       2.92080769       0.00000000
Si      -2.27307402       0.93323781       2.28162320       0.00000000
Si       0.77602302      -3.34093239      -1.37343375       0.00000000
Si       2.52553644       0.09342315      -2.79125866       0.00000000
Si       1.55761722      -3.38483394       0.86593845       0.00000000
Si      -1.79136243      -2.51454069       2.32701541       0.00000000
