10
Lattice="16.28999089631971 0.0 0.0 0.0 16.28999089631971 0.0 0.0 0.0 34.51877397758722" Properties=species:S:1:pos:R:3:initial_magmoms:R:1 pbc="T T T"
Si       1.35369900       1.35595517      -1.35967110       0.00000000
Si       1.35639044      -1.35803006       1.36090342       0.00000000
Si      -1.36078515       1.35760045       1.36100698       0.00000000
Si      -1.36409202      -1.37541261      -1.37665780       0.00000000
Si      -0.09927126       2.66690920      -2.68072258       0.00000000
Si       2.71580105       2.71300990       0.00176046       0.00000000
Si       2.71207716      -2.71699185       0.00227824       0.00000000
Si      -2.71536381      -2.71511850       0.00134623       0.00000000
Si       2.71277600      -0.00025412       2.71804430       0.00000000
Si      -0.00185706       2.71436198       2.71818238       0.00000000
