10
Lattice="16.28999089631971 0.0 0.0 0.0 16.28999089631971 0.0 0.0 0.0 34.51877397758722" Properties=species:S:1:pos:R:3:initial_magmoms:R:1 pbc="T T T"
Si      -0.61478460       2.24958873       0.21788262       0.00000000
Si       2.24922743      -0.77044532       0.15146846       0.00000000
Si      -1.07800704      -0.43637326       2.10074472       0.00000000
Si      -1.22570847      -1.09864321      -1.92887565       0.00000000
Si      -1.01815758      -3.04272995      -0.40559582       0.00000000
Si      -2.87450082       1.82893206      -0.03217152       0.00000000
Si      -0.89068833      -2.78593439       1.94886203       0.00000000
Si       0.52898517       3.17789067      -1.54219613       0.00000000
Si       0.36795852      -0.33644063      -3.64611658       0.00000000
Si      -3.00037365       0.54068628      -2.07288805       0.00000000
