10
Lattice="16.28999089631971 0.0 0.0 0.0 16.28999089631971 0.0 0.0 0.0 34.51877397758722" Properties=species:S:1:pos:R:3:initial_magmoms:R:1 pbc="T T T"
Si      -1.34754138      -1.35909099      -1.35093095       0.00000000
Si      -1.35604476       1.35431802       1.35731347       0.00000000
Si       1.35842310      -1.35850455       1.35634694       0.00000000
Si       1.34728074       1.37464794      -1.36587068       0.00000000
Si       2.61993699      -0.04919580      -2.68538262       0.00000000
Si      -2.72031597      -0.03880278      -2.66254844       0.00000000
Si      -2.71181259       2.71326240      -0.00075941       0.00000000
Si      -2.70774009      -2.71882543      -0.00445292       0.00000000
Si       0.00185706       2.71355562       2.71331523       0.00000000
Si      -2.71336014      -0.00188964       2.71372945       0.00000000
