10
Lattice="16.28999089631971 0.0 0.0 0.0 16.28999089631971 0.0 0.0 0.0 34.51877397758722" Properties=species:S:1:pos:R:3:initial_magmoms:R:1 pbc="T T T"
Si       1.35708342      -1.35671265       1.35734799       0.00000000
Si      -1.35744570       1.35749457       1.35717539       0.00000000
Si      -1.35892809      -1.35676152      -1.35717539       0.00000000
Si       1.35809500       1.35770634      -1.35790029       0.00000000
Si      -0.00177561       2.71301805       2.71466146       0.00000000
Si       2.71463306      -2.71461610      -0.00013808       0.00000000
Si       2.71453206       2.71511946      -0.00020711       0.00000000
Si       2.71545896       0.00205254       2.71469598       0.00000000
Si      -2.71568961      -2.71477737       0.00020711       0.00000000
Si      -2.71549413       2.71529865      -0.00020711       0.00000000
