10
Lattice="16.28999089631971 0.0 0.0 0.0 16.28999089631971 0.0 0.0 0.0 34.51877397758722" Properties=species:S:1:pos:R:3:initial_magmoms:R:1 pbc="T T T"
Si       1.35524929       1.35549090      -1.36656451       0.00000000
Si      -1.35731538      -1.35988920      -1.36466597       0.00000000
Si      -1.32585939       1.36485765       1.39676845       0.00000000
Si       1.20822930      -1.41402087       1.45479454       0.00000000
Si      -2.34481518      -0.43010487       2.71252129       0.00000000
Si      -0.66603294      -2.27406771       2.74065411       0.00000000
Si       2.33023793       0.18453312       2.87610586       0.00000000
Si       2.71021684       2.71575477       0.00583368       0.00000000
Si       2.70462285      -2.72719361       0.02229914       0.00000000
Si       0.00074934       2.70821250      -2.72387798       0.00000000
