10
Lattice="16.28999089631971 0.0 0.0 0.0 16.28999089631971 0.0 0.0 0.0 34.51877397758722" Properties=species:S:1:pos:R:3:initial_magmoms:R:1 pbc="T T T"
Si      -1.03900878       2.12468841      -0.01349685       0.00000000
Si       0.18240632       1.26819279      -2.19815676       0.00000000
Si       0.84358321       1.46478051       2.15283358       0.00000000
Si      -1.46637693      -1.73514564       1.65144811       0.00000000
Si       1.05424223      -2.67346593      -0.91129614       0.00000000
Si       0.11497989      -0.45652725       3.35495056       0.00000000
Si       1.12171867       3.18896298      -0.91001895       0.00000000
Si      -2.60185509      -1.49314140      -2.39063355       0.00000000
Si       2.59736624      -1.63914867      -2.40074755       0.00000000
Si       3.18652667       1.34029233       2.02618413       0.00000000
