10
Lattice="16.28999089631971 0.0 0.0 0.0 16.28999089631971 0.0 0.0 0.0 34.51877397758722" Properties=species:S:1:pos:R:3:initial_magmoms:R:1 pbc="T T T"
Si      -2.19346479      -0.36004158      -0.67194283       0.00000000
Si       0.59140845      -1.48255290       1.72804531       0.00000000
Si       1.83361869       0.20227293      -1.53342835       0.00000000
Si       0.33353775       2.26053072       0.77408394       0.00000000
Si       1.31061195       2.52020961      -1.34143483       0.00000000
Si       2.39052492      -0.11042991       2.28783658       0.00000000
Si       3.43764612      -0.42474546       0.18505525       0.00000000
Si      -3.01959585      -0.97932222       1.45648596       0.00000000
Si      -2.84612364       1.83459609      -1.52683526       0.00000000
Si      -1.32923142      -1.84827969       2.99288293       0.00000000
