10
Lattice="16.28999089631971 0.0 0.0 0.0 16.28999089631971 0.0 0.0 0.0 34.51877397758722" Properties=species:S:1:pos:R:3:initial_magmoms:R:1 pbc="T T T"
Si       0.17721891      -2.30687577       0.85768846       0.00000000
Si       2.35216197       0.72325971       0.21560438       0.00000000
Si      -1.51573563       0.61131483      -2.48293680       0.00000000
Si      -2.12318973      -1.59814674      -1.83225755       0.00000000
Si      -3.11476203      -1.15360893       0.29617125       0.00000000
Si      -2.15065467       2.34828495      -1.00753454       0.00000000
Si      -0.23229540      -3.02995629      -1.44319623       0.00000000
Si      -0.81886572      -1.52713863       3.01590697       0.00000000
Si      -3.28639347       1.20940218       0.74653794       0.00000000
Si       2.06233029       1.85096754       2.38493795       0.00000000
