10
Lattice="16.28999089631971 0.0 0.0 0.0 16.28999089631971 0.0 0.0 0.0 34.51877397758722" Properties=species:S:1:pos:R:3:initial_magmoms:R:1 pbc="T T T"
Si       1.35663992       1.35726651      -1.35638146       0.00000000
Si      -1.35720135       1.35698958       1.35745155       0.00000000
Si      -1.35783666      -1.35799956      -1.35738251       0.00000000
Si       1.35713672      -1.35847197       1.35793481       0.00000000
Si       0.00112401       2.70961344      -2.71607673       0.00000000
Si      -2.71454931       2.71386513       0.00010356       0.00000000
Si       2.71353348      -0.00133578       2.71517924       0.00000000
Si      -2.71389771       0.00011403       2.71504117       0.00000000
Si      -2.71423980       0.00158013      -2.71497213       0.00000000
Si       2.71498329       2.71440270       0.00000000       0.00000000
