10
Lattice="16.28999089631971 0.0 0.0 0.0 16.28999089631971 0.0 0.0 0.0 34.51877397758722" Properties=species:S:1:pos:R:3:initial_magmoms:R:1 pbc="T T T"
Si      -1.35669636      -1.35687555       1.35758962       0.00000000
Si      -1.35734796       1.35687555      -1.35734799       0.00000000
Si       1.35720135      -1.35698958      -1.35745155       0.00000000
Si       1.35664749       1.35767376       1.35738251       0.00000000
Si       2.71384127       0.00027693      -2.71383301       0.00000000
Si      -2.71174743      -0.00003258       2.71742296       0.00000000
Si      -2.71503801       0.00055386      -2.71441983       0.00000000
Si      -2.71508688      -2.71467963       0.00027615       0.00000000
Si       2.71433807      -2.71546155       0.00048326       0.00000000
Si      -0.00063531      -2.71498914      -2.71483405       0.00000000
