10
Lattice="16.28999089631971 0.0 0.0 0.0 16.28999089631971 0.0 0.0 0.0 34.51877397758722" Properties=species:S:1:pos:R:3:initial_magmoms:R:1 pbc="T T T"
Si      -1.17946116       1.46585565      -1.38299545       0.00000000
Si      -1.78588899      -0.61874307       1.41817010       0.00000000
Si       1.93127724       0.69768441       1.21806466       0.00000000
Si       1.54199511      -1.28588373      -1.35620887       0.00000000
Si      -0.33690978      -1.16374131       3.21331995       0.00000000
Si       1.78150698      -1.71266544       2.39021932       0.00000000
Si      -2.64846078      -2.57557932       0.26741709       0.00000000
Si      -2.52216441       0.08721666      -2.74745431       0.00000000
Si       0.19113057      -2.62860327      -2.74911121       0.00000000
Si      -2.60811045       2.79308340       0.07017671       0.00000000
