10
Lattice="16.28999089631971 0.0 0.0 0.0 16.28999089631971 0.0 0.0 0.0 34.51877397758722" Properties=species:S:1:pos:R:3:initial_magmoms:R:1 pbc="T T T"
Si      -1.27765728       1.78512336       0.89279407       0.00000000
Si      -0.78159420       0.04390155      -2.23937219       0.00000000
Si      -0.46025766      -1.87991487       1.39110737       0.00000000
Si       2.38192380       0.07286517       0.13565886       0.00000000
Si       2.55402765      -1.43192358      -1.73008192       0.00000000
Si       2.49429222      -0.07648155       2.59391472       0.00000000
Si      -2.49398271      -1.08805797       2.39895258       0.00000000
Si       0.80153316      -1.38043089      -3.26903328       0.00000000
Si      -3.04310232      -0.61129854      -2.00181386       0.00000000
Si      -3.34897965       0.87029325       1.46107696       0.00000000
