10
Lattice="16.28999089631971 0.0 0.0 0.0 16.28999089631971 0.0 0.0 0.0 34.51877397758722" Properties=species:S:1:pos:R:3:initial_magmoms:R:1 pbc="T T T"
Si       1.81817577       0.81003654       1.38003171       0.00000000
Si      -1.79248644       1.65760524       0.37724178       0.00000000
Si      -0.91077390      -1.91743074       1.45925579       0.00000000
Si       0.46845153       0.39216546      -2.50433845       0.00000000
Si       1.84743261      -1.68296877      -1.86943429       0.00000000
Si       0.43334658       2.06324253       2.94061254       0.00000000
Si      -2.28294576      -0.67974912       2.95866587       0.00000000
Si      -0.81981054       3.43929141       1.52154495       0.00000000
Si      -3.55081275       0.62965737       1.52167612       0.00000000
Si       2.97434223       2.71303434       0.18022262       0.00000000
