10
Lattice="16.28999089631971 0.0 0.0 0.0 16.28999089631971 0.0 0.0 0.0 34.51877397758722" Properties=species:S:1:pos:R:3:initial_magmoms:R:1 pbc="T T T"
Si       2.11195845       0.35836371       1.03653032       0.00000000
Si      -0.91017117       2.14883019       0.55205906       0.00000000
Si      -0.11236842       0.14934672      -2.45825586       0.00000000
Si      -1.15644339      -2.09797281       0.58882158       0.00000000
Si       2.09947868      -1.54693098      -1.86415291       0.00000000
Si       3.14360252      -1.55566242       0.23372675       0.00000000
Si       1.34944731       0.22289607       3.27338265       0.00000000
Si      -2.49429222       0.07648155      -2.59391472       0.00000000
Si      -0.66728727       1.74972519       3.13938069       0.00000000
Si      -2.95454988      -1.80343332      -1.20280735       0.00000000
