10
Lattice="16.28999089631971 0.0 0.0 0.0 16.28999089631971 0.0 0.0 0.0 34.51877397758722" Properties=species:S:1:pos:R:3:initial_magmoms:R:1 pbc="T T T"
Si       1.35808460       1.35762601      -1.35700280       0.00000000
Si      -1.35777150      -1.35755973      -1.35745155       0.00000000
Si       1.35736570      -1.35769005       1.35790029       0.00000000
Si      -1.35804843       1.35745511       1.35748606       0.00000000
Si       2.71463795      -0.00009774       2.71428175       0.00000000
Si       2.71377132      -0.00133578      -2.71562799       0.00000000
Si       2.71455975      -2.71515204       0.00017259       0.00000000
Si      -0.00140094       2.71431052       2.71545539       0.00000000
Si       2.71447016       2.71540195       0.00013808       0.00000000
Si      -0.00097740      -2.71489140       2.71500665       0.00000000
