10
Lattice="16.28999089631971 0.0 0.0 0.0 16.28999089631971 0.0 0.0 0.0 34.51877397758722" Properties=species:S:1:pos:R:3:initial_magmoms:R:1 pbc="T T T"
Si       1.99410777       1.09216305       0.42765333       0.00000000
Si      -0.19070703      -2.31070392       0.57611866       0.00000000
Si      -1.64784753       1.53891630       0.80118119       0.00000000
Si       0.53669034      -0.02911023      -2.36433023       0.00000000
Si      -1.59897753      -1.94331555       2.48966796       0.00000000
Si       1.57928292       1.89902304       2.57689696       0.00000000
Si      -2.80222209       0.13027113       2.28365981       0.00000000
Si      -0.26674875       3.15766989       1.82821885       0.00000000
Si       3.80151585      -0.22797855      -0.27473508       0.00000000
Si      -1.21257873      -3.36470764      -1.34474863       0.00000000
