10
Lattice="16.28999089631971 0.0 0.0 0.0 16.28999089631971 0.0 0.0 0.0 34.51877397758722" Properties=species:S:1:pos:R:3:initial_magmoms:R:1 pbc="T T T"
Si       0.72860332       1.92130776      -1.20211698       0.00000000
Si       1.67254529      -0.80283636       1.54526830       0.00000000
Si      -1.86911967       0.33402645       1.49304137       0.00000000
Si      -1.58135682      -1.27861839      -1.70350245       0.00000000
Si      -1.64347059      -1.96615413       2.08117256       0.00000000
Si      -0.11497989       0.45652725      -3.35495056       0.00000000
Si      -2.07670314      -3.10819716       0.07549260       0.00000000
Si       0.51817073      -2.21148153       3.02774691       0.00000000
Si       3.07154678       1.79681958      -1.32876643       0.00000000
Si      -0.06555603       3.90152016      -0.21722677       0.00000000
