10
Lattice="16.28999089631971 0.0 0.0 0.0 16.28999089631971 0.0 0.0 0.0 34.51877397758722" Properties=species:S:1:pos:R:3:initial_magmoms:R:1 pbc="T T T"
Si      -1.15420026      -0.92170449      -1.86066651       0.00000000
Si       2.30698980      -0.56236338      -0.16879690       0.00000000
Si      -0.74849292      -1.36744776       1.80588519       0.00000000
Si      -0.22861386       2.38275459       0.38768057       0.00000000
Si       2.86726806      -0.35026758       2.09501460       0.00000000
Si       1.29411018      -1.99415664       2.79243230       0.00000000
Si      -2.02026625      -0.03564252       3.22671324       0.00000000
Si       0.73739943       2.81372283       2.47896714       0.00000000
Si       3.27590271       0.62418393      -1.90202003       0.00000000
Si       0.41011704      -1.84650408      -3.38177166       0.00000000
