10
Lattice="16.28999089631971 0.0 0.0 0.0 16.28999089631971 0.0 0.0 0.0 34.51877397758722" Properties=species:S:1:pos:R:3:initial_magmoms:R:1 pbc="T T T"
Si      -1.35708342       1.35671265      -1.35734799       0.00000000
Si       1.35754964      -1.35790345      -1.35748606       0.00000000
Si       1.35837555       1.35876519       1.35734799       0.00000000
Si      -1.35832146      -1.35899488       1.35783125       0.00000000
Si      -2.71452912       2.71420722      -0.00017259       0.00000000
Si       2.71480475       2.71435383       0.00010356       0.00000000
Si       0.00101158       2.71441899      -2.71524828       0.00000000
Si       2.71560296      -0.00040725      -2.71466146       0.00000000
Si       0.00116408      -2.71567938      -2.71462694       0.00000000
Si      -2.71601151      -0.00004887      -2.71452338       0.00000000
