10
Lattice="16.28999089631971 0.0 0.0 0.0 16.28999089631971 0.0 0.0 0.0 34.51877397758722" Properties=species:S:1:pos:R:3:initial_magmoms:R:1 pbc="T T T"
Si       0.61508108       1.90545759      -1.30915975       0.00000000
Si       1.35269228      -1.81737756      -0.78682137       0.00000000
Si      -2.30598375      -0.71198703      -0.31916076       0.00000000
Si       1.76168531       0.10902897       1.71934657       0.00000000
Si      -1.25257461      -2.26502676       1.63784770       0.00000000
Si       0.27301877      -1.09216305       3.05915353       0.00000000
Si       2.89576253       1.47256713      -1.18440883       0.00000000
Si       2.45611172      -0.48125547      -2.41151742       0.00000000
Si       3.43000937      -0.95345370       0.17697785       0.00000000
Si      -2.01615207      -1.83969486      -2.48849433       0.00000000
