10
Lattice="16.28999089631971 0.0 0.0 0.0 16.28999089631971 0.0 0.0 0.0 34.51877397758722" Properties=species:S:1:pos:R:3:initial_magmoms:R:1 pbc="T T T"
Si       1.35679410      -1.35655053      -1.35734799       0.00000000
Si       1.35733167       1.35709373       1.35631243       0.00000000
Si      -1.35809730      -1.35715326       1.35655406       0.00000000
Si      -1.35826509       1.35834643      -1.35758962       0.00000000
Si       2.71373481       0.00053679       2.71193447       0.00000000
Si       2.71394658      -2.71386591      -0.00003452       0.00000000
Si      -0.00102627      -2.71339350      -2.71486857       0.00000000
Si      -0.00518022      -2.71280706       2.71593865       0.00000000
Si       2.71518462      -0.00046094      -2.71386753       0.00000000
Si      -2.71465065       0.00057050      -2.71473050       0.00000000
