10
Lattice="16.28999089631971 0.0 0.0 0.0 16.28999089631971 0.0 0.0 0.0 34.51877397758722" Properties=species:S:1:pos:R:3:initial_magmoms:R:1 pbc="T T T"
Si       1.04412384      -0.00873144       2.09787966       0.00000000
Si       1.26592848       1.47185037      -1.39417954       0.00000000
Si      -0.35649036      -2.31278904      -0.62403074       0.00000000
Si      -2.21184710       1.69627770      -0.59410295       0.00000000
Si      -2.03974325       0.19148895      -2.45984373       0.00000000
Si      -2.09947868       1.54693098       1.86415291       0.00000000
Si       0.01206763       0.94441275      -3.31183658       0.00000000
Si       0.01247977       1.90529469       2.90068324       0.00000000
Si       1.91914119      -2.82641274      -1.09576457       0.00000000
Si      -1.73525057      -2.12797899      -2.48504245       0.00000000
