10
Lattice="16.28999089631971 0.0 0.0 0.0 16.28999089631971 0.0 0.0 0.0 34.51877397758722" Properties=species:S:1:pos:R:3:initial_magmoms:R:1 pbc="T T T"
Si      -1.25386085      -0.52743762      -1.91765704       0.00000000
Si       2.12459067      -0.61383978      -0.83549287       0.00000000
Si      -1.26592848      -1.47185037       1.39417954       0.00000000
Si      -0.59399041       2.18895246       0.75696262       0.00000000
Si      -3.47777558       0.22442733       0.80007659       0.00000000
Si       1.60047621      -2.89753488      -1.41140442       0.00000000
Si      -3.30567173      -1.28036142      -1.06566419       0.00000000
Si      -2.84311718       2.43501291       0.14970801       0.00000000
Si      -0.29996406       2.17087056       3.06454395       0.00000000
Si      -0.20227293      -2.39803461      -2.91728678       0.00000000
