10
Lattice="16.28999089631971 0.0 0.0 0.0 16.28999089631971 0.0 0.0 0.0 34.51877397758722" Properties=species:S:1:pos:R:3:initial_magmoms:R:1 pbc="T T T"
Si       0.79576487      -1.94116527       1.12013484       0.00000000
Si      -1.42361146       1.11384504       1.60757472       0.00000000
Si       2.04934227       1.09990080      -0.68830474       0.00000000
Si      -0.45046315      -0.17122419      -2.49857381       0.00000000
Si      -1.37123911      -2.05649847      -1.37402057       0.00000000
Si       2.68541790      -0.72801639       2.19505006       0.00000000
Si       0.63971807      -3.40257375      -1.09838800       0.00000000
Si       2.94367956       1.62456912       1.58641470       0.00000000
Si       3.58412091      -0.80712063      -1.16749463       0.00000000
Si      -0.19227087       2.45586411       3.29171213       0.00000000
