10
Lattice="16.28999089631971 0.0 0.0 0.0 16.28999089631971 0.0 0.0 0.0 34.51877397758722" Properties=species:S:1:pos:R:3:initial_magmoms:R:1 pbc="T T T"
Si      -2.04934227      -1.09990080       0.68830474       0.00000000
Si       1.53477864      -1.90702143      -0.47918989       0.00000000
Si       0.89433729       0.52466832       2.27471944       0.00000000
Si       0.32143428       1.68195311      -1.82462889       0.00000000
Si      -2.49980543      -1.27112499      -1.81026908       0.00000000
Si       0.63607563      -1.82791719       2.88335480       0.00000000
Si       1.37064060       3.22441069      -0.37321719       0.00000000
Si       1.63159011       0.31563504      -3.28646527       0.00000000
Si       3.09485565      -0.91629621      -1.89704932       0.00000000
Si      -1.25357740      -3.04106607       1.80843958       0.00000000
