10
Lattice="16.28999089631971 0.0 0.0 0.0 16.28999089631971 0.0 0.0 0.0 34.51877397758722" Properties=species:S:1:pos:R:3:initial_magmoms:R:1 pbc="T T T"
Si       2.13162795       0.64583334       0.79721153       0.00000000
Si      -0.25826166      -2.35258551       0.60863536       0.00000000
Si      -1.20288618       1.91089749       0.97950528       0.00000000
Si      -0.89433729      -0.52466832      -2.27471944       0.00000000
Si       2.29304556       1.98358673      -1.16262748       0.00000000
Si      -3.13595043       0.83129499       1.70529743       0.00000000
Si       1.58806323      -3.25993851      -0.66676501       0.00000000
Si      -2.94367956      -1.62456912      -1.58641470       0.00000000
Si       0.64044135      -2.43168975      -2.75390933       0.00000000
Si       0.47630331       2.69974237      -2.64793663       0.00000000
