10
Lattice="16.290000149 0.0 0.0 0.0 16.290000149 0.0 0.0 0.0 29.1751946751" Properties=species:S:1:pos:R:3:initial_magmoms:R:1 pbc="T T T"
Si      -1.33538905      -1.36415393       1.36892931       0.00000000
Si       1.35005005      -1.34988552      -1.37310136       0.00000000
Si       1.36023130       1.34607529       1.36752890       0.00000000
Si      -1.36907677       1.34436484      -1.36394035       0.00000000
Si      -2.69755886      -2.70661610      -0.00825658       0.00000000
Si       2.71409321       2.69369813      -0.00638937       0.00000000
Si      -0.00930159       2.73331541       2.67886638       0.00000000
Si       2.72533331      -2.69609276      -0.03690662       0.00000000
Si      -0.01925478       2.70932024      -2.72032433       0.00000000
Si      -2.76099213      -0.00259011       2.66812990       0.00000000
