10
Lattice="16.290000149 0.0 0.0 0.0 16.290000149 0.0 0.0 0.0 29.1751946751" Properties=species:S:1:pos:R:3:initial_magmoms:R:1 pbc="T T T"
Si      -1.34324083      -1.37826433       1.31302964       0.00000000
Si       1.30368871      -1.34646625      -1.43188938       0.00000000
Si       1.22737006       1.43440782       1.42716300       0.00000000
Si      -1.40186854       1.34049108      -1.35956407       0.00000000
Si       0.20285937      -2.70176168       2.49859285       0.00000000
Si       2.64161900       2.71740008       0.04600928       0.00000000
Si      -2.70640433      -0.00695583       2.65497189       0.00000000
Si      -0.29313855       2.75097378       2.62518402       0.00000000
Si       2.65885382       0.00855225      -2.76540000       0.00000000
Si      -0.06647949       2.70464501      -2.72849338       0.00000000
