10
Lattice="16.290000149 0.0 0.0 0.0 16.290000149 0.0 0.0 0.0 29.1751946751" Properties=species:S:1:pos:R:3:initial_magmoms:R:1 pbc="T T T"
H        0.45706482       1.28290267      -0.65953445       0.00000000
Si      -0.81715528       0.98702740       1.94020880       0.00000000
Si      -1.88019182      -0.70620409      -1.27329302       0.00000000
Si       2.00889911      -1.36529749      -0.08224487       0.00000000
H        0.97661809      -0.24925329      -2.47008868       0.00000000
H       -0.65792053      -2.66768300      -1.05319535       0.00000000
Si       3.16951112       0.69401917      -0.67902348       0.00000000
Si      -2.32062455       2.29718324       0.64550118       0.00000000
Si       0.78480334      -2.95393089      -1.49330316       0.00000000
Si       2.00160119       0.85970476      -2.70226488       0.00000000
