10
Lattice="16.290000149 0.0 0.0 0.0 16.290000149 0.0 0.0 0.0 29.1751946751" Properties=species:S:1:pos:R:3:initial_magmoms:R:1 pbc="T T T"
Si      -0.43864083       0.24796638      -2.28335081       0.00000000
Si       0.80985736       1.85937320       1.18098475       0.00000000
Si      -1.87393646      -0.80215219       1.19610333       0.00000000
Si       1.63321912      -1.73525969       0.08402952       0.00000000
Si       2.18491256       0.59499226       2.59830695       0.00000000
Si      -0.67108285      -2.19924776       2.63770805       0.00000000
Si      -2.15664941       1.87897007      -2.17948711       0.00000000
Si      -0.48746196      -2.04610547      -2.95029576       0.00000000
Si       1.71615152      -2.42786162      -2.14564389       0.00000000
Si       0.64461160      -3.52205767       1.23728996       0.00000000
