10
Lattice="16.290000149 0.0 0.0 0.0 16.290000149 0.0 0.0 0.0 29.1751946751" Properties=species:S:1:pos:R:3:initial_magmoms:R:1 pbc="T T T"
Si      -1.08012475      -1.16598934       1.70642796       0.00000000
Si       0.87625540      -1.78184909      -1.28292084       0.00000000
Si       1.87173731       1.46357506       0.15894646       0.00000000
Si      -1.59777208       1.30214116      -1.21351305       0.00000000
H        0.47829069       2.29915433       1.78788510       0.00000000
H       -1.23313672      -0.37046718       2.98263850       0.00000000
H        2.59136435       1.54302139       1.48352947       0.00000000
Si       1.99550873      -0.34050987      -2.83483697       0.00000000
Si      -3.29072664      -1.08970327       0.90057991       0.00000000
Si      -0.28429308       2.66038508      -2.59924727       0.00000000
