10
Lattice="16.290000149 0.0 0.0 0.0 16.290000149 0.0 0.0 0.0 29.1751946751" Properties=species:S:1:pos:R:3:initial_magmoms:R:1 pbc="T T T"
Si      -0.69081004       2.04823457       0.76800782       0.00000000
Si       2.05390838      -0.61263758       0.89661208       0.00000000
Si      -1.24105366      -1.78735999       0.84424261       0.00000000
Si      -0.64208665      -0.67777315      -2.14531041       0.00000000
Si      -0.68276278      -2.82317594      -1.16578243       0.00000000
H        0.68216005       2.31148097      -2.13574095       0.00000000
Si      -1.30579012       1.53277010       2.94987476       0.00000000
Si      -3.53550018       0.78496135      -0.76882473       0.00000000
Si       1.53038035      -1.86794662       2.82763069       0.00000000
Si       1.07237071       3.53551159       0.43759874       0.00000000
