10
Lattice="16.290000149 0.0 0.0 0.0 16.290000149 0.0 0.0 0.0 29.1751946751" Properties=species:S:1:pos:R:3:initial_magmoms:R:1 pbc="T T T"
Si      -0.73658494      -1.63923014       1.43218113       0.00000000
Si      -1.40917135       1.43336037      -1.11895624       0.00000000
Si       1.52089957      -1.29347488      -1.17386396       0.00000000
Si       0.82536544       1.63328917       1.44493069       0.00000000
H        0.21582621       2.94101292       1.00423938       0.00000000
H       -1.56326661      -2.77604409       0.73798655       0.00000000
Si       2.56077173      -2.10927809       0.78081574       0.00000000
Si       0.10691127      -2.68141547      -2.47992072       0.00000000
Si      -2.62248037       0.07327584      -2.57188094       0.00000000
Si       0.01001835       2.72025083      -2.50101439       0.00000000
