10
Lattice="16.290000149 0.0 0.0 0.0 16.290000149 0.0 0.0 0.0 29.1751946751" Properties=species:S:1:pos:R:3:initial_magmoms:R:1 pbc="T T T"
Si      -1.52050861       1.31656596       1.19802102       0.00000000
Si       1.41424894       1.28299227      -1.38115372       0.00000000
Si      -1.22737006      -1.43440782      -1.42716300       0.00000000
Si       0.98080462      -0.85882184       1.98732674       0.00000000
Si      -0.08145000       2.64693769       2.40852902       0.00000000
Si      -0.76504357      -1.18416735       3.48004640       0.00000000
Si       1.10301220      -3.16381939       1.74951972       0.00000000
Si      -2.68332140      -0.12253338       2.70258581       0.00000000
Si      -2.57061089      -2.81267215      -0.11413336       0.00000000
Si       0.06638175       2.61631249      -2.78812748       0.00000000
