10
Lattice="16.290000149 0.0 0.0 0.0 16.290000149 0.0 0.0 0.0 29.1751946751" Properties=species:S:1:pos:R:3:initial_magmoms:R:1 pbc="T T T"
Si       1.31217580       1.35990550       1.34540827       0.00000000
Si      -1.37505520       1.26438094      -1.41732220       0.00000000
Si       1.28741500      -1.44893035      -1.32820074       0.00000000
Si      -1.42718320      -1.39048183       1.28166047       0.00000000
Si      -2.18491256      -0.59499226      -2.59830695       0.00000000
Si      -0.55169344      -2.33025194      -2.51427743       0.00000000
Si       2.62094699       2.64948707      -0.12515575       0.00000000
Si       2.62905941      -0.03150486       2.68732135       0.00000000
Si      -0.10665063       2.69045642       2.64764308       0.00000000
Si       2.53676027      -2.81945694       0.08509237       0.00000000
