10
Lattice="16.290000149 0.0 0.0 0.0 16.290000149 0.0 0.0 0.0 29.1751946751" Properties=species:S:1:pos:R:3:initial_magmoms:R:1 pbc="T T T"
Si       1.38104992      -1.34543998      -1.33709917       0.00000000
Si      -1.29720529       1.29958363      -1.46322354       0.00000000
Si       1.38919492       1.35694072       1.33193516       0.00000000
Si      -1.34991973      -1.39051441       1.34576420       0.00000000
Si      -2.78381442       0.05041755       2.46591663       0.00000000
Si      -2.66304035       2.66831831      -0.20498492       0.00000000
Si       2.70796817      -0.03748329       2.64738634       0.00000000
Si       0.01601307      -2.68532507      -2.70958786       0.00000000
Si      -2.70956459      -2.70003494      -0.04390867       0.00000000
Si       2.72606636       0.02500515      -2.70080612       0.00000000
