10
Lattice="16.290000149 0.0 0.0 0.0 16.290000149 0.0 0.0 0.0 29.1751946751" Properties=species:S:1:pos:R:3:initial_magmoms:R:1 pbc="T T T"
Si      -1.29920443      -1.29050684       1.47208405       0.00000000
Si      -1.44995209       1.38466630      -1.22668857       0.00000000
Si       1.36228023       1.39497787       1.31833077       0.00000000
Si       1.43218876      -1.30681965      -1.35239864       0.00000000
Si      -2.62387467      -2.62681791       0.13447722       0.00000000
Si      -0.12863760       2.70966233      -2.59303354       0.00000000
Si       0.08581618      -2.51994899      -2.83481654       0.00000000
Si       2.71100264      -2.68024259       0.03503941       0.00000000
Si       2.65638227       0.04171869       2.74989922       0.00000000
Si       0.01173463       2.72153774       2.72492525       0.00000000
