10
Lattice="16.290000149 0.0 0.0 0.0 16.290000149 0.0 0.0 0.0 29.1751946751" Properties=species:S:1:pos:R:3:initial_magmoms:R:1 pbc="T T T"
Si      -1.43312905       1.31978323      -1.28280413       0.00000000
Si      -1.37995849      -1.31794246       1.36335685       0.00000000
Si       1.33587775       1.40427946       1.33809113       0.00000000
Si       1.34605900      -1.27918855      -1.46077282       0.00000000
Si      -0.07656300       2.66005928      -2.59762805       0.00000000
Si       2.68547168      -2.61553871      -0.03868631       0.00000000
Si      -0.02440242      -2.68824098       2.70264416       0.00000000
Si      -2.75348244      -2.64451862      -0.00023340       0.00000000
Si       2.69819417       0.06496452       2.70296509       0.00000000
Si      -2.74880721       0.06133185       2.68578090       0.00000000
