10
Lattice="16.290000149 0.0 0.0 0.0 16.290000149 0.0 0.0 0.0 29.1751946751" Properties=species:S:1:pos:R:3:initial_magmoms:R:1 pbc="T T T"
Si      -1.34729704      -1.35661492      -1.36227737       0.00000000
Si      -1.36971208       1.36344043       1.33616557       0.00000000
Si       1.35132067       1.37570680      -1.34672699       0.00000000
Si       1.34566804      -1.35878149       1.36962951       0.00000000
Si      -0.00405621       2.71855667       2.68298008       0.00000000
Si      -2.70754463      -2.70115895       0.00997792       0.00000000
Si       0.03078810      -2.70523145      -2.71270960       0.00000000
Si      -2.69982317       0.01083285      -2.71834041       0.00000000
Si       2.77014711       0.04515588      -2.64896180       0.00000000
Si       2.71669961      -2.70454727       0.03118828       0.00000000
