10
Lattice="16.290000149 0.0 0.0 0.0 16.290000149 0.0 0.0 0.0 29.1751946751" Properties=species:S:1:pos:R:3:initial_magmoms:R:1 pbc="T T T"
Si       1.34324083       1.37826433      -1.31302964       0.00000000
Si      -1.36316350       1.37130850       1.34194225       0.00000000
Si       1.54610020      -1.32349735       1.18556321       0.00000000
Si      -1.40550121      -1.32527296      -1.36041015       0.00000000
Si       2.62655075      -2.74488132      -0.31258304       0.00000000
Si       2.57061089       2.81267215       0.11413336       0.00000000
Si      -0.05862771       2.71875541      -2.67259371       0.00000000
Si       2.64692954       0.03179808      -2.74491902       0.00000000
Si      -2.70067025       0.07680735       2.71431424       0.00000000
Si      -2.77728213      -2.65245185       0.00180886       0.00000000
