10
Lattice="16.290000149 0.0 0.0 0.0 16.290000149 0.0 0.0 0.0 29.1751946751" Properties=species:S:1:pos:R:3:initial_magmoms:R:1 pbc="T T T"
Si      -0.92822050       1.04306500      -1.83386521       0.00000000
Si       1.07155621       1.75967840       1.06366925       0.00000000
Si       1.33323877      -1.54616536      -1.15749667       0.00000000
Si      -1.93888469      -1.02801304       0.90142599       0.00000000
H        0.51303726      -1.28231623       2.39537101       0.00000000
Si       0.69204808      -2.66980559       1.78476336       0.00000000
Si      -1.69806962      -1.00237258      -2.71460599       0.00000000
Si      -0.47684088      -2.87307221      -1.76232763       0.00000000
Si      -2.22397598       2.54435141      -0.51269570       0.00000000
Si      -1.20857140      -3.21791197       0.49962521       0.00000000
