10
Lattice="16.290000149 0.0 0.0 0.0 16.290000149 0.0 0.0 0.0 29.1751946751" Properties=species:S:1:pos:R:3:initial_magmoms:R:1 pbc="T T T"
Si       1.37428957       1.34332228      -1.34147545       0.00000000
Si       1.36085032      -1.39450546       1.30605676       0.00000000
Si      -1.35602848      -1.35296596      -1.35962242       0.00000000
Si      -1.35167905       1.37078722       1.34952780       0.00000000
Si       0.00368154       2.69123834      -2.68190060       0.00000000
Si      -2.73963594       0.01000206       2.66121538       0.00000000
Si       2.78184333      -0.08514783       2.61946568       0.00000000
Si       0.01210347      -2.75206521       2.65999002       0.00000000
Si       0.01282023      -2.73224028      -2.68204647       0.00000000
Si       0.02306664       2.73626391       2.68764811       0.00000000
