10
Lattice="16.290000149 0.0 0.0 0.0 16.290000149 0.0 0.0 0.0 29.1751946751" Properties=species:S:1:pos:R:3:initial_magmoms:R:1 pbc="T T T"
Si       1.13998073      -0.96225031      -0.29058494       0.00000000
Si      -1.88445491       1.64129897      -0.26027191       0.00000000
H       -1.15117684      -1.80356366       1.92988078       0.00000000
Si      -1.52798084       1.40691844       2.10008886       0.00000000
Si      -0.17712785      -2.65992896      -1.42757145       0.00000000
Si       2.42926745      -0.80793514       1.73469872       0.00000000
Si       2.61743324       0.24161328      -1.67920750       0.00000000
Si      -0.24667459       2.70171281      -1.69096511       0.00000000
Si      -1.08179773      -0.72746254       2.98999065       0.00000000
Si      -2.95651611      -0.04813695      -1.64431397       0.00000000
