10
Lattice="16.290000149 0.0 0.0 0.0 16.290000149 0.0 0.0 0.0 29.1751946751" Properties=species:S:1:pos:R:3:initial_magmoms:R:1 pbc="T T T"
Si      -1.33349941      -1.33986554       1.32908183       0.00000000
Si       1.49791438      -1.23578710      -1.27999165       0.00000000
Si      -1.24934527       1.37052658      -1.41329311       0.00000000
Si       1.41957577       1.42910542       1.23592543       0.00000000
Si       0.65850697       2.16065675      -2.53531275       0.00000000
H       -0.55359937      -0.45770013      -3.33509819       0.00000000
Si       2.36392337       0.49210461      -2.66233863       0.00000000
Si       0.10042785      -2.68625360       2.59096735       0.00000000
Si      -2.66369195       0.07967439       2.61535781       0.00000000
Si      -2.69420312      -2.62248580      -0.08075110       0.00000000
