10
Lattice="16.290000149 0.0 0.0 0.0 16.290000149 0.0 0.0 0.0 29.1751946751" Properties=species:S:1:pos:R:3:initial_magmoms:R:1 pbc="T T T"
Si       1.43329195      -1.22409577      -1.28610093       0.00000000
Si      -1.22134276       1.53373609      -1.24219226       0.00000000
Si       1.48418191       1.01465524       1.47002136       0.00000000
Si      -1.11925333      -1.44133921       1.55191613       0.00000000
H        2.07394508      -2.06594669      -0.20501409       0.00000000
Si      -1.99550873       0.34050987       2.83483697       0.00000000
Si      -0.12377142       1.80408494       2.99378343       0.00000000
Si       2.46415574      -0.84191608       2.36832560       0.00000000
Si      -0.00576666      -2.55446750      -2.49660893       0.00000000
Si       0.70097500      -2.32919309       2.69873468       0.00000000
