10
Lattice="16.290000149 0.0 0.0 0.0 16.290000149 0.0 0.0 0.0 29.1751946751" Properties=species:S:1:pos:R:3:initial_magmoms:R:1 pbc="T T T"
Si      -1.30653946       1.42483744       1.30283612       0.00000000
Si       1.26482077       1.48383982      -1.32601260       0.00000000
Si       1.45197658      -1.41700195       1.21683902       0.00000000
Si      -1.37855755      -1.02762208      -1.63241049       0.00000000
Si       0.33671430      -1.47101959      -3.15707699       0.00000000
Si      -0.42505497       2.41429205      -2.63597884       0.00000000
Si       2.23466222       0.02902878      -2.83827964       0.00000000
Si      -2.22237956       0.81855622      -2.75518868       0.00000000
Si       2.40938876      -2.68755680      -0.53705698       0.00000000
Si      -2.60703533      -0.05911641       2.57593337       0.00000000
