10
Lattice="16.290000149 0.0 0.0 0.0 16.290000149 0.0 0.0 0.0 29.1751946751" Properties=species:S:1:pos:R:3:initial_magmoms:R:1 pbc="T T T"
H       -0.06937911      -1.07610112      -1.06010987       0.00000000
Si       2.19731902       0.18658566       0.65615013       0.00000000
Si      -1.62093646      -0.67702870       1.56168982       0.00000000
Si      -0.44618310       2.13438098      -0.88990179       0.00000000
H       -1.88890697       2.42062886      -0.44979398       0.00000000
H        1.08179773       0.72746254      -2.98999065       0.00000000
Si      -3.15677397      -1.39686751      -0.04743887       0.00000000
H       -1.28471086      -3.24451354       0.67534741       0.00000000
Si       2.99356446      -2.07379847       0.44019534       0.00000000
Si       3.51106518      -0.08047260      -1.25529193       0.00000000
