10
Lattice="16.290000149 0.0 0.0 0.0 16.290000149 0.0 0.0 0.0 29.1751946751" Properties=species:S:1:pos:R:3:initial_magmoms:R:1 pbc="T T T"
Si       0.59895073       0.09207108       1.40084697       0.00000000
H        2.11307366      -0.75613294      -0.30435563       0.00000000
Si       1.39344661      -0.83557927      -1.62893864       0.00000000
Si      -0.47829069      -2.29915433      -1.78788510       0.00000000
Si      -1.11632113       0.53546859       2.92551347       0.00000000
H       -3.11520189      -0.63923590       0.73813243       0.00000000
Si       1.07730658      -1.93759778       2.45978984       0.00000000
Si       1.05370237       1.11443149      -3.00268186       0.00000000
H       -1.71142742      -2.66962151       1.19475340       0.00000000
Si       2.49689864       1.59211945       1.71964432       0.00000000
