10
Lattice="16.290000149 0.0 0.0 0.0 16.290000149 0.0 0.0 0.0 29.1751946751" Properties=species:S:1:pos:R:3:initial_magmoms:R:1 pbc="T T T"
Si      -1.35286822      -1.34110684      -1.31139583       0.00000000
Si       1.39347919      -1.28259316       1.36128541       0.00000000
Si       1.38176668       1.33835383      -1.34025009       0.00000000
Si      -1.18193725       1.45072225       1.41272128       0.00000000
Si       2.27100521       0.60663961       2.43035207       0.00000000
Si       0.67248379       2.38514924       2.51814023       0.00000000
Si       0.08519670      -2.67507866      -2.59259532       0.00000000
Si      -2.66191634       0.08573427      -2.61045054       0.00000000
Si       0.01537776      -2.59936274       2.71778608       0.00000000
Si      -2.72424188      -2.59569749       0.12069778       0.00000000
