10
Lattice="16.290000149 0.0 0.0 0.0 16.290000149 0.0 0.0 0.0 29.1751946751" Properties=species:S:1:pos:R:3:initial_magmoms:R:1 pbc="T T T"
Si      -1.35516511      -1.35501850       1.33351062       0.00000000
Si      -1.37528326       1.34620724      -1.33619474       0.00000000
Si       1.30637656       1.31412572       1.44673955       0.00000000
Si       1.35304741      -1.38544822      -1.33663237       0.00000000
Si       0.03777651      -2.80769556       2.52356681       0.00000000
Si       2.67278177       2.67325418       0.06967036       0.00000000
Si      -0.01081656       2.69408909      -2.68595595       0.00000000
Si       2.71197551      -0.02166570      -2.67924565       0.00000000
Si      -2.72557766      -0.02337615      -2.68756058       0.00000000
Si      -2.72533331       2.69609276       0.03690662       0.00000000
