10
Lattice="16.290000149 0.0 0.0 0.0 16.290000149 0.0 0.0 0.0 29.1751946751" Properties=species:S:1:pos:R:3:initial_magmoms:R:1 pbc="T T T"
Si       1.35516511       1.35501850      -1.33351062       0.00000000
Si       1.39294162      -1.45267705       1.19005619       0.00000000
Si      -1.37474569      -1.36547668      -1.33812030       0.00000000
Si      -1.30368871       1.34646625       1.43188938       0.00000000
Si      -0.02037879      -2.77667940       2.43233598       0.00000000
Si       2.66154167       2.66914422       0.11322893       0.00000000
Si      -0.02011815       2.70122574      -2.66970536       0.00000000
Si       2.70821252      -0.03042972      -2.67014299       0.00000000
Si      -2.64692954      -0.03179808       2.74491902       0.00000000
Si      -2.70555725       2.68695733       0.07232531       0.00000000
