10
Lattice="16.290000149 0.0 0.0 0.0 16.290000149 0.0 0.0 0.0 29.1751946751" Properties=species:S:1:pos:R:3:initial_magmoms:R:1 pbc="T T T"
Si       1.35232577       1.35250984       1.36105201       0.00000000
Si       1.38822078      -1.36094806      -1.32327013       0.00000000
Si      -1.33810948      -1.35698959       1.38121207       0.00000000
Si      -1.34530966       1.38095218      -1.35454594       0.00000000
Si      -2.68900661       2.71200809       0.03235529       0.00000000
Si       0.05310670      -2.73779516      -2.66833413       0.00000000
Si      -2.70172910       0.03150486      -2.70929610       0.00000000
Si       2.69162930      -0.00718389       2.72318350       0.00000000
Si       2.71081892       2.70492194      -0.00122536       0.00000000
Si      -2.69715161      -2.72191241       0.04986041       0.00000000
