10
Lattice="16.290000149 0.0 0.0 0.0 16.290000149 0.0 0.0 0.0 29.1751946751" Properties=species:S:1:pos:R:3:initial_magmoms:R:1 pbc="T T T"
Si       1.34641738      -1.34501644       1.36493231       0.00000000
Si      -1.35446464       1.32914998       1.40090532       0.00000000
Si      -1.42138396      -1.46010529      -1.22490596       0.00000000
Si       1.45987723       1.43664118      -1.21545028       0.00000000
Si      -0.99564481       0.92564668      -3.42264712       0.00000000
Si       0.04302189       2.77961648      -2.47005367       0.00000000
Si      -2.82721098      -0.09565488      -2.47818188       0.00000000
Si       2.68962563      -2.64826532      -0.05919647       0.00000000
Si      -0.08390979      -2.61361649      -2.78296055       0.00000000
Si      -0.00894321      -2.71588511       2.71081321       0.00000000
