10
Lattice="16.290000149 0.0 0.0 0.0 16.290000149 0.0 0.0 0.0 29.1751946751" Properties=species:S:1:pos:R:3:initial_magmoms:R:1 pbc="T T T"
Si       1.34881201       1.36153450       1.34993626       0.00000000
Si      -1.34296064       1.35840682      -1.36329850       0.00000000
Si       1.35927019      -1.35498592      -1.35416666       0.00000000
Si      -1.36743963      -1.36576990       1.34404287       0.00000000
Si      -0.03342708      -2.69825933      -2.68338853       0.00000000
Si       2.69149898      -0.02104668       2.69459180       0.00000000
Si      -2.67807472      -0.01844028      -2.70836250       0.00000000
Si      -0.03955212       2.71217099       2.68315513       0.00000000
Si       2.69710274       2.70961346      -0.02797901       0.00000000
Si       2.68928354      -2.72469800       0.01855542       0.00000000
