10
Lattice="16.290000149 0.0 0.0 0.0 16.290000149 0.0 0.0 0.0 29.1751946751" Properties=species:S:1:pos:R:3:initial_magmoms:R:1 pbc="T T T"
Si      -1.16790993       0.16568559      -2.02324140       0.00000000
Si       0.22608240       1.84725344       1.44528079       0.00000000
Si       2.31357261      -0.18176382      -0.59324841       0.00000000
Si      -1.16061201      -2.05931666       0.59677861       0.00000000
H       -2.71244630       0.58888351       0.01948903       0.00000000
H       -2.19289303      -0.94327246      -1.79106520       0.00000000
Si      -3.16951112      -0.69401917       0.67902348       0.00000000
Si       1.66011554       0.66139030       2.89114509       0.00000000
Si       1.88060070      -1.99234847      -2.07841169       0.00000000
Si       0.31694476      -0.91401562      -3.44252710       0.00000000
