10
Lattice="16.290000149 0.0 0.0 0.0 16.290000149 0.0 0.0 0.0 29.1751946751" Properties=species:S:1:pos:R:3:initial_magmoms:R:1 pbc="T T T"
Si       2.26203268      -0.48272157       0.20478069       0.00000000
Si      -0.26318124       0.73716812       2.21185903       0.00000000
Si      -0.55623835       1.74639553      -1.50818251       0.00000000
Si      -1.52588431      -1.84145420      -0.41475457       0.00000000
H       -1.30691413       1.85282299       2.23852516       0.00000000
Si       2.76107358      -1.18659619      -1.91593503       0.00000000
Si      -1.09348255      -1.19236285       3.23316590       0.00000000
Si      -2.66020589      -1.97061761       1.64521840       0.00000000
Si      -3.04292316      -0.84553246      -1.92185760       0.00000000
Si      -1.77170042       0.61858799      -3.18791517       0.00000000
