10
Lattice="16.290000149 0.0 0.0 0.0 16.290000149 0.0 0.0 0.0 29.1751946751" Properties=species:S:1:pos:R:3:initial_magmoms:R:1 pbc="T T T"
Si      -1.41309235      -1.29632563      -1.34321692       0.00000000
Si      -1.38199474       1.35674524       1.32414539       0.00000000
Si       1.32359509       1.40266675      -1.34114227       0.00000000
Si       1.37138995      -1.41198463       1.30357687       0.00000000
Si       2.62681139       2.58812264       0.21085788       0.00000000
Si       2.66372453       0.04795776      -2.68754016       0.00000000
Si      -0.10655289      -2.72116307      -2.64605303       0.00000000
Si      -2.69228090       0.19881945      -2.68018801       0.00000000
Si      -2.73536796      -0.04100193       2.64431419       0.00000000
Si      -0.04486266       2.68152950       2.72889308       0.00000000
