10
Lattice="16.290000149 0.0 0.0 0.0 16.290000149 0.0 0.0 0.0 29.1751946751" Properties=species:S:1:pos:R:3:initial_magmoms:R:1 pbc="T T T"
Si       1.36738261       1.35003376      -1.35036513       0.00000000
Si      -1.34355034      -1.36950031      -1.36336852       0.00000000
Si       1.35171163      -1.31888728       1.40758644       0.00000000
Si      -1.36275625       1.37373571       1.34961533       0.00000000
Si       2.67206501       2.64541457       0.12501571       0.00000000
Si      -2.69943221      -2.68376123       0.03597302       0.00000000
Si       0.08330706      -2.74496277      -2.65737884       0.00000000
Si      -0.00400734       2.76201840      -2.65394201       0.00000000
Si       2.77053807      -2.64943820       0.10535163       0.00000000
Si      -2.71759556      -0.01826109      -2.72406167       0.00000000
