10
Lattice="16.290000149 0.0 0.0 0.0 16.290000149 0.0 0.0 0.0 29.1751946751" Properties=species:S:1:pos:R:3:initial_magmoms:R:1 pbc="T T T"
Si       0.96984145      -1.45481104      -1.51226704       0.00000000
Si      -1.68987575       0.93045223      -1.30996624       0.00000000
Si      -1.26482077      -1.48383982       1.32601260       0.00000000
Si       1.50545665       1.28528101       1.28452547       0.00000000
H       -1.15803982       1.19084788      -2.69610892       0.00000000
Si      -0.92810647      -2.95485942      -1.83106439       0.00000000
Si      -2.64337832      -2.51146190      -0.30639789       0.00000000
Si      -2.57136023      -0.05900238       2.62884871       0.00000000
H        0.11829798       2.94479220      -2.27295189       0.00000000
Si       0.16532721       2.63999000       2.63092336       0.00000000
