10
Lattice="16.290000149 0.0 0.0 0.0 16.290000149 0.0 0.0 0.0 29.1751946751" Properties=species:S:1:pos:R:3:initial_magmoms:R:1 pbc="T T T"
Si      -0.97997383       1.85657132      -0.89830424       0.00000000
Si      -1.76318075      -1.48727701       0.33040908       0.00000000
Si       0.38317338       0.64332469       2.22317901       0.00000000
Si       1.75814714      -0.96602959      -1.25888048       0.00000000
H       -0.39021066      -1.22403061      -2.57333970       0.00000000
Si       1.87176989      -1.22367223       2.57494433       0.00000000
Si       2.49650768      -2.29530989       0.52935473       0.00000000
Si      -2.46415574       0.84191608      -2.36832560       0.00000000
Si      -1.07237071      -3.53551159      -0.43759874       0.00000000
Si      -3.58340907      -0.59942314      -0.81640947       0.00000000
