10
Lattice="16.290000149 0.0 0.0 0.0 16.290000149 0.0 0.0 0.0 29.1751946751" Properties=species:S:1:pos:R:3:initial_magmoms:R:1 pbc="T T T"
Si       1.32796896      -1.35718507       1.36822910       0.00000000
Si      -1.34355849      -1.35971002      -1.35273708       0.00000000
Si      -1.32221859       1.33390666       1.40466892       0.00000000
Si       1.35018852       1.36718713      -1.36251077       0.00000000
Si       2.63962348       0.07128504       2.69114913       0.00000000
Si      -2.66132176       2.70554096       0.03468931       0.00000000
Si      -2.67955027       0.01738143      -2.70448220       0.00000000
Si      -2.69746927      -2.70554096       0.02226067       0.00000000
Si       2.70615184      -2.70267392       0.01091152       0.00000000
Si       0.02230101      -2.71075376      -2.70162303       0.00000000
