10
Lattice="16.290000149 0.0 0.0 0.0 16.290000149 0.0 0.0 0.0 29.1751946751" Properties=species:S:1:pos:R:3:initial_magmoms:R:1 pbc="T T T"
Si       1.41783274      -1.18034083      -1.46293179       0.00000000
Si      -1.31687710      -1.42664563       1.34704791       0.00000000
Si      -1.84101600       1.17286861      -0.93731148       0.00000000
Si       1.44580267       1.44235408       1.27580209       0.00000000
H        0.80200558       2.60265332      -1.44428884       0.00000000
Si      -0.47706894       2.56155365      -2.26770036       0.00000000
Si      -2.77234626       1.98817823       1.05876781       0.00000000
Si      -2.48817128       0.16527834       2.63239029       0.00000000
Si      -0.11533320      -2.50563008      -2.64534408       0.00000000
Si       2.80181487      -2.49600269      -0.03320137       0.00000000
