10
Lattice="16.290000149 0.0 0.0 0.0 16.290000149 0.0 0.0 0.0 29.1751946751" Properties=species:S:1:pos:R:3:initial_magmoms:R:1 pbc="T T T"
H       -1.04373289       1.11565487       0.02666613       0.00000000
Si      -0.83030131      -1.92953097       1.02130686       0.00000000
Si       0.26318124      -0.73716812      -2.21185903       0.00000000
Si       1.87059538       0.89768489       1.12190294       0.00000000
Si       2.52521392      -1.21988969      -2.00707834       0.00000000
Si      -2.39702465      -2.70778573      -0.56664063       0.00000000
Si       0.93926512       1.71299451       3.11798223       0.00000000
H        0.17159886       3.28406729      -1.70879115       0.00000000
Si      -2.88054444       0.53372394       2.40129357       0.00000000
Si       0.93830401      -3.08587663       2.05332103       0.00000000
