10
Lattice="16.290000149 0.0 0.0 0.0 16.290000149 0.0 0.0 0.0 29.1751946751" Properties=species:S:1:pos:R:3:initial_magmoms:R:1 pbc="T T T"
Si      -1.36733374       1.35801586      -1.32706291       0.00000000
Si       1.35148357       1.36174627       1.34529740       0.00000000
Si      -1.37551132      -1.33125139       1.35498357       0.00000000
Si       1.37503891      -1.36422235      -1.33184764       0.00000000
Si       2.66817170      -0.07863183       2.62518402       0.00000000
Si       0.00104256       2.70197345      -2.66979289       0.00000000
Si       0.00938304      -2.71933859      -2.67866215       0.00000000
Si      -2.70808220      -0.00467523      -2.69193686       0.00000000
Si      -2.68511330       2.72129339       0.06383533       0.00000000
Si       2.73509102      -0.00122175      -2.67554040       0.00000000
