10
Lattice="16.290000149 0.0 0.0 0.0 16.290000149 0.0 0.0 0.0 29.1751946751" Properties=species:S:1:pos:R:3:initial_magmoms:R:1 pbc="T T T"
H       -0.64816282       0.42619527      -0.04583423       0.00000000
Si       1.98777098       0.62188705       1.08231220       0.00000000
H       -1.79789474      -1.20796867       1.07986148       0.00000000
Si       0.75057805      -0.55640125      -2.50261902       0.00000000
Si       0.20611737       2.16878546       1.71124187       0.00000000
Si      -2.51752178      -1.28741500      -0.24472153       0.00000000
Si      -0.90956845      -2.07684470      -1.76848360       0.00000000
Si       2.60962544       0.27598518      -1.24455545       0.00000000
Si       1.22500801      -1.24963849       2.36158613       0.00000000
Si      -0.73217035       1.24774885      -2.61859042       0.00000000
