10
Lattice="16.290000149 0.0 0.0 0.0 16.290000149 0.0 0.0 0.0 29.1751946751" Properties=species:S:1:pos:R:3:initial_magmoms:R:1 pbc="T T T"
Si       1.32188464      -1.48857267      -1.20736875       0.00000000
Si       1.36070371       1.28262025       1.40983293       0.00000000
Si      -1.34978941      -1.39516581       1.31066645       0.00000000
Si      -1.38285811       1.32489280      -1.36535827       0.00000000
Si       2.69420312       2.62248580       0.08075110       0.00000000
Si      -2.69855255       2.64770272       0.03505983       0.00000000
Si      -2.67400352      -0.04338902       2.69505861       0.00000000
Si       0.03051117       2.70216019       2.69610892       0.00000000
Si       0.03520269      -2.75195992       2.64998293       0.00000000
Si      -2.68692149      -2.71995007      -0.09408125       0.00000000
