10
Lattice="16.290000149 0.0 0.0 0.0 16.290000149 0.0 0.0 0.0 29.1751946751" Properties=species:S:1:pos:R:3:initial_magmoms:R:1 pbc="T T T"
Si      -1.32796896       1.35718507      -1.36822910       0.00000000
Si       1.31165452       1.42847011       1.32292003       0.00000000
Si      -1.34198813      -1.36691020       1.36411540       0.00000000
Si       1.37818288      -1.34548885      -1.35731758       0.00000000
Si       2.66532095       0.07095924       2.62775143       0.00000000
Si      -2.65018754       2.69109173       0.03643982       0.00000000
Si       2.68302818       2.68306076      -0.10917358       0.00000000
Si      -2.67152744      -0.00252495      -2.72096618       0.00000000
Si      -2.61371489      -0.00562005       2.78719387       0.00000000
Si       0.02256165      -2.71350677      -2.69465016       0.00000000
