10
Lattice="16.290000149 0.0 0.0 0.0 16.290000149 0.0 0.0 0.0 29.1751946751" Properties=species:S:1:pos:R:3:initial_magmoms:R:1 pbc="T T T"
Si      -1.33918462      -1.34910523       1.37228446       0.00000000
Si       1.32322042      -1.37108044      -1.37353899       0.00000000
Si      -1.35977518       1.32594085      -1.39048978       0.00000000
Si       1.34372953       1.32631552       1.40779067       0.00000000
Si       2.69847110       2.66836718       0.00886926       0.00000000
Si       2.62676252      -2.74993122       0.00142958       0.00000000
Si      -2.73124658       2.68540652      -0.06791985       0.00000000
Si      -2.73111626       0.00307881       2.68706460       0.00000000
Si       2.67713120      -0.02524950      -2.74853674       0.00000000
Si      -0.00566892       2.70011639      -2.73359904       0.00000000
