10
Lattice="16.290000149 0.0 0.0 0.0 16.290000149 0.0 0.0 0.0 29.1751946751" Properties=species:S:1:pos:R:3:initial_magmoms:R:1 pbc="T T T"
Si      -1.35979147       1.35740010       1.33960824       0.00000000
Si       1.34877943       1.37373897      -1.33701165       0.00000000
Si       1.38241828      -1.35929951       1.32239487       0.00000000
Si      -1.35573526      -1.37181023      -1.33806195       0.00000000
Si       2.67897197      -0.04580096      -2.62328763       0.00000000
Si       0.00570150      -2.71488817       2.65479684       0.00000000
Si      -2.72635958      -0.01123684      -2.65158757       0.00000000
Si       0.01358586       2.70453424       2.68292173       0.00000000
Si       2.73271269       0.01028388       2.67376072       0.00000000
Si      -2.70410744       0.00209815       2.70524075       0.00000000
