10
Lattice="16.290000149 0.0 0.0 0.0 16.290000149 0.0 0.0 0.0 29.1751946751" Properties=species:S:1:pos:R:3:initial_magmoms:R:1 pbc="T T T"
Si      -1.34372953      -1.32631552      -1.40779067       0.00000000
Si      -1.38365632       1.35068536       1.35536284       0.00000000
Si       1.35474157       1.34205166      -1.39892141       0.00000000
Si       1.39121423      -1.35466012       1.35183265       0.00000000
Si      -2.68291415      -2.67542075      -0.03550621       0.00000000
Si       2.66294099      -2.71595027      -0.07124583       0.00000000
Si      -2.71533125       2.66861153      -0.08603765       0.00000000
Si       0.02448387       2.71345790       2.67597803       0.00000000
Si       2.74867200       0.05706387       2.66532908       0.00000000
Si      -2.73637793      -0.03399723       2.70990878       0.00000000
