10
Lattice="16.290000149 0.0 0.0 0.0 16.290000149 0.0 0.0 0.0 29.1751946751" Properties=species:S:1:pos:R:3:initial_magmoms:R:1 pbc="T T T"
Si       0.06937911       1.07610112       1.06010987       0.00000000
H        1.15117684       1.80356366      -1.92988078       0.00000000
Si      -2.46265706      -1.39240405      -1.03291859       0.00000000
H       -1.21533175      -2.16841242       1.73545728       0.00000000
Si      -0.46465596      -2.27483988      -2.01125040       0.00000000
Si      -1.55155735       0.39907242       2.62179969       0.00000000
Si       2.26669813       1.26268678       1.71626000       0.00000000
Si      -0.37680399       3.21048210       0.17020809       0.00000000
Si      -3.08739486      -0.32076639       1.01267101       0.00000000
Si       2.29115757       0.84131335      -2.22046572       0.00000000
