10
Lattice="16.290000149 0.0 0.0 0.0 16.290000149 0.0 0.0 0.0 29.1751946751" Properties=species:S:1:pos:R:3:initial_magmoms:R:1 pbc="T T T"
Si       1.34665847       1.34776945      -1.36852086       0.00000000
Si       1.35107306      -1.35912358       1.35976830       0.00000000
Si      -1.33016213       1.34941474       1.39139421       0.00000000
Si      -1.36442109      -1.32989932      -1.37916980       0.00000000
Si       2.67747004       2.69333975       0.04621351       0.00000000
Si      -2.70505552      -2.68309334       0.00644772       0.00000000
Si      -2.69866984       2.70614369       0.05061896       0.00000000
Si       2.69182153       0.00356751       2.72464226       0.00000000
Si       2.69848414      -0.02161683      -2.72706380       0.00000000
Si      -2.67770461      -0.00431685       2.74909107       0.00000000
