10
Lattice="16.290000149 0.0 0.0 0.0 16.290000149 0.0 0.0 0.0 29.1751946751" Properties=species:S:1:pos:R:3:initial_magmoms:R:1 pbc="T T T"
Si      -0.62729533       0.40048965      -2.14954082       0.00000000
Si       1.48274839      -1.80415010       0.11597140       0.00000000
Si       0.97756291       1.99583453       0.87458481       0.00000000
Si      -2.12509568      -0.58515310       1.00012567       0.00000000
H        0.08400753      -0.82155358       2.57275619       0.00000000
H        0.73217035      -1.24774885       2.61859042       0.00000000
H        2.29014596       1.52549335       1.47369743       0.00000000
H        2.83224459       1.38235312      -0.85827588       0.00000000
Si      -2.34655823       1.54917901       1.91438875       0.00000000
Si      -0.17739810      -3.32459355       0.85010682       0.00000000
