10
Lattice="16.290000149 0.0 0.0 0.0 16.290000149 0.0 0.0 0.0 29.1751946751" Properties=species:S:1:pos:R:3:initial_magmoms:R:1 pbc="T T T"
H       -1.44272386       0.28624788       0.44010781       0.00000000
Si       0.44618310      -2.13438098       0.88990179       0.00000000
Si      -0.35647407       0.23438052      -2.36036077       0.00000000
Si       1.22409577       1.58863339       1.41105829       0.00000000
H        0.19181475       2.70467759      -0.97678552       0.00000000
H        1.52798084      -1.40691844      -2.10008886       0.00000000
H        0.37680399      -3.21048210      -0.17020809       0.00000000
Si      -0.78480334       2.95393089       1.49330316       0.00000000
Si       3.41609448       0.16739604       0.36862858       0.00000000
Si      -2.66499515       2.24772680       0.22001014       0.00000000
