10
Lattice="16.290000149 0.0 0.0 0.0 16.290000149 0.0 0.0 0.0 29.1751946751" Properties=species:S:1:pos:R:3:initial_magmoms:R:1 pbc="T T T"
Si       1.36850771      -1.35672895       1.34077525       0.00000000
Si       1.39804789       1.33457455      -1.33511526       0.00000000
Si      -1.35084826       1.36076887       1.36006005       0.00000000
Si      -1.35703846      -1.34799751      -1.36802488       0.00000000
Si       0.08109162       2.76997117      -2.61080065       0.00000000
Si       2.69866984      -2.70614369      -0.05061896       0.00000000
Si       0.02096523      -2.71046054       2.69847211       0.00000000
Si      -2.70977636      -0.00301365       2.70267333       0.00000000
Si       2.68274963       0.00954594       2.73526203       0.00000000
Si      -2.71114472       2.71382280       0.00761473       0.00000000
