10
Lattice="16.290000149 0.0 0.0 0.0 16.290000149 0.0 0.0 0.0 29.1751946751" Properties=species:S:1:pos:R:3:initial_magmoms:R:1 pbc="T T T"
Si      -1.36339156      -1.00185130       1.63308152       0.00000000
Si       1.23139369      -1.42834631      -1.41972332       0.00000000
Si      -1.35177679       1.30828249      -1.42885516       0.00000000
Si       1.42658047       1.27149967       1.40478562       0.00000000
Si       0.06188571      -2.62173738       2.57310629       0.00000000
Si      -0.06333552       2.53633673       2.68989460       0.00000000
Si       2.72235159       2.62904312      -0.04151630       0.00000000
Si      -1.45901386       0.71778628       3.44293555       0.00000000
Si      -2.74370844       2.66046653      -0.11407501       0.00000000
Si       2.61417035      -0.09254349      -2.79971003       0.00000000
