10
Lattice="16.290000149 0.0 0.0 0.0 16.290000149 0.0 0.0 0.0 29.1751946751" Properties=species:S:1:pos:R:3:initial_magmoms:R:1 pbc="T T T"
Si      -1.35549091      -0.57819727      -0.27935249       0.00000000
H        0.92009179      -1.76575457      -0.45166119       0.00000000
H        1.58017888      -0.83898388       1.15851781       0.00000000
Si       1.04834296      -1.09937953       2.54466048       0.00000000
Si      -2.71362080       0.76387069       1.05325370       0.00000000
Si      -1.78623110      -0.16436610      -2.49232018       0.00000000
Si       2.04340133      -1.82799866      -1.46570343       0.00000000
Si      -1.18045486       2.08915994       2.23566599       0.00000000
Si      -1.81682372      -2.78458005       0.32183157       0.00000000
Si       0.01171251       1.15087222      -3.13977610       0.00000000
