10
Lattice="16.290000149 0.0 0.0 0.0 16.290000149 0.0 0.0 0.0 29.1751946751" Properties=species:S:1:pos:R:3:initial_magmoms:R:1 pbc="T T T"
Si       1.34593846      -1.36054407       1.35580047       0.00000000
Si      -1.31421107      -1.38372474      -1.36376530       0.00000000
Si      -1.38009533       1.34788022       1.34092112       0.00000000
Si       1.32441937       1.38389741      -1.36163551       0.00000000
Si      -2.63116734       0.05167188      -2.63945069       0.00000000
Si       2.68056188      -0.01117820      -2.65088736       0.00000000
Si      -0.00959318       2.71638685       2.66579589       0.00000000
Si       2.66388092      -2.73110323      -0.03305550       0.00000000
Si       2.70281402       0.00215680       2.70594096       0.00000000
Si      -0.02950934      -2.70875335       2.70661199       0.00000000
