10
Lattice="16.290000149 0.0 0.0 0.0 16.290000149 0.0 0.0 0.0 29.1751946751" Properties=species:S:1:pos:R:3:initial_magmoms:R:1 pbc="T T T"
Si      -1.27907452      -0.04109967      -0.82341152       0.00000000
Si       2.31026411      -0.20230551      -0.92144017       0.00000000
Si       2.16622793       0.21287772       1.43766607       0.00000000
Si       1.44902809       1.87594013      -1.71305073       0.00000000
H        1.29601612       2.67146228      -0.43684019       0.00000000
Si       0.64379710      -1.16029924       2.72009093       0.00000000
Si      -2.64302157      -1.42978472       0.50697736       0.00000000
Si      -0.80200558      -2.60265332       1.44428884       0.00000000
Si      -0.68393566      -1.56705240      -2.57118073       0.00000000
Si      -2.07531996       2.21928446      -0.60745673       0.00000000
