10
Lattice="10.86 0.0 0.0 0.0 10.86 0.0 0.0 0.0 10.86" Properties=species:S:1:pos:R:3:initial_magmoms:R:1 pbc="T T T"
Si       1.21768836       1.33124052       1.35956340       0.00000000
Si      -1.49731164       1.33124052      -1.35543660       0.00000000
Si      -1.49731164      -1.38375948       1.35956340       0.00000000
Si       2.52951120      -0.18657480      -2.62822860       0.00000000
Si       2.57518836       2.68874052       0.00206340       0.00000000
Si       2.57518836      -0.02625948       2.71706340       0.00000000
Si      -0.13981164       2.68874052      -2.71293660       0.00000000
Si      -0.13981164       2.68874052       2.71706340       0.00000000
Si      -0.13981164      -2.74125948       2.71706340       0.00000000
Si      -2.62809828      -0.18620556      -2.84963142       0.00000000
