10
Lattice="10.86 0.0 0.0 0.0 10.86 0.0 0.0 0.0 10.86" Properties=species:S:1:pos:R:3:initial_magmoms:R:1 pbc="T T T"
Si       1.40317716      -1.19718468      -1.44220800       0.00000000
Si       1.40317716       1.51781532       1.27279200       0.00000000
Si      -1.31182284       1.51781532      -1.44220800       0.00000000
Si      -2.35544712       0.12443388      -2.62098498       0.00000000
Si      -2.52951120       0.18657480       2.62822860       0.00000000
Si       2.76067716      -2.55468468      -0.08470800       0.00000000
Si       0.17992848      -2.66098236       2.70354270       0.00000000
Si       2.76067716       0.16031532       2.63029200       0.00000000
Si       0.04567716       2.87531532       2.63029200       0.00000000
Si      -2.66932284       2.87531532      -0.08470800       0.00000000
