10
Lattice="16.28999089631971 0.0 0.0 0.0 16.28999089631971 0.0 0.0 0.0 34.385447050020396" Properties=species:S:1:pos:R:3:initial_magmoms:R:1 pbc="T T T"
Si       1.32848192       1.36782243       1.37578658       0.00000000
Si      -1.30424665       1.44917469      -1.31965230       0.00000000
Si      -1.37522218      -1.36383952       1.36615864       0.00000000
Si       1.97707153      -0.80684370      -1.17559783       0.00000000
Si       0.25150603       2.61759123      -2.64766990       0.00000000
Si       2.69282155       2.71578735       0.02065191       0.00000000
Si       2.69291929       0.00162900       2.72541613       0.00000000
Si      -2.71305472      -2.70751922      -0.02611920       0.00000000
Si      -0.02176303      -2.71191786       2.72624138       0.00000000
Si      -0.01828147       2.71749780       2.72978308       0.00000000
