10
Lattice="16.28999089631971 0.0 0.0 0.0 16.28999089631971 0.0 0.0 0.0 34.385447050020396" Properties=species:S:1:pos:R:3:initial_magmoms:R:1 pbc="T T T"
Si      -0.83292399      -2.21361552      -0.25455561       0.00000000
Si       0.92502765       0.54296199      -2.22597754       0.00000000
Si      -2.19970223       1.30225518       0.05635778       0.00000000
Si       1.68059043       0.54110493       1.98370928       0.00000000
Si      -0.86137610       3.29476068       0.15590370       0.00000000
Si       0.67973283       2.91241647      -1.71831052       0.00000000
Si      -1.41511067      -2.75566527       2.17030889       0.00000000
Si      -3.08855861      -2.08883412      -1.30740420       0.00000000
Si      -0.48254238      -0.44299026      -3.96110256       0.00000000
Si       0.74404575      -3.42743229      -1.96217225       0.00000000
