10
Lattice="16.28999089631971 0.0 0.0 0.0 16.28999089631971 0.0 0.0 0.0 34.385447050020396" Properties=species:S:1:pos:R:3:initial_magmoms:R:1 pbc="T T T"
Si       2.07568809      -0.32491545       0.96609406       0.00000000
Si      -1.46722401       1.57856779       0.91578812       0.00000000
Si      -0.92181852      -2.08193272       0.58723499       0.00000000
Si      -0.09280413       0.39324223      -2.34017168       0.00000000
Si      -2.89015551      -1.69555021      -0.52771375       0.00000000
Si      -3.33848889       0.10148833       0.91950175       0.00000000
Si       2.72960127      -2.45710771       0.18987654       0.00000000
Si      -2.21403906       2.85736537      -0.89921433       0.00000000
Si       0.72948249      -1.54927837      -3.31465579       0.00000000
Si       1.20888090       2.33323462      -2.64912509       0.00000000
