10
Lattice="16.28999089631971 0.0 0.0 0.0 16.28999089631971 0.0 0.0 0.0 34.385447050020396" Properties=species:S:1:pos:R:3:initial_magmoms:R:1 pbc="T T T"
Si      -1.21580415       1.34459289      -1.44991820       0.00000000
Si      -1.36008468      -1.34509788       1.35314031       0.00000000
Si       1.35417141       1.36850661       1.34922036       0.00000000
Si       1.11988863      -1.48107051      -1.46903996       0.00000000
Si       0.60699798       2.19634812      -2.73819518       0.00000000
Si       2.23493913       0.26813340      -2.82615320       0.00000000
Si      -2.20134915      -0.30929823      -2.87793772       0.00000000
Si      -0.00524538      -2.70127296       2.70620840       0.00000000
Si      -0.73625913      -2.32875324      -2.94378588       0.00000000
Si       2.71104696      -2.70283680      -0.04371080       0.00000000
