10
Lattice="16.28999089631971 0.0 0.0 0.0 16.28999089631971 0.0 0.0 0.0 34.385447050020396" Properties=species:S:1:pos:R:3:initial_magmoms:R:1 pbc="T T T"
Si       2.26582497      -0.09334170       0.43019657       0.00000000
Si      -0.48584925       2.18952261       0.58751008       0.00000000
Si      -0.69714684       1.04361885      -1.97547942       0.00000000
Si      -1.21280679      -1.55237184       1.29409702       0.00000000
Si       2.27289483       1.39680234       2.19585588       0.00000000
Si      -1.51622433      -0.81578691      -3.13416648       0.00000000
Si      -3.28511308      -1.52550963       0.21807263       0.00000000
Si       3.37957227       1.17045279      -1.18086568       0.00000000
Si       1.22269482       2.00583657      -2.96780959       0.00000000
Si       1.50736257       3.36509046       1.00481210       0.00000000
