10
Lattice="16.28999089631971 0.0 0.0 0.0 16.28999089631971 0.0 0.0 0.0 34.385447050020396" Properties=species:S:1:pos:R:3:initial_magmoms:R:1 pbc="T T T"
Si      -1.11374730      -1.26379449       1.61106225       0.00000000
Si       2.27787957      -0.54532404      -0.17319959       0.00000000
Si       0.77432886      -1.85140737      -1.74379015       0.00000000
Si      -1.32004386       2.56230297      -0.35035352       0.00000000
Si      -2.15687745       0.83538378      -1.78694391       0.00000000
Si      -0.79175916      -0.63964314      -3.17910828       0.00000000
Si      -1.10667744       0.22634955       3.37672156       0.00000000
Si      -1.87220970       2.19463767       2.18567778       0.00000000
Si       2.54598039       2.44459143       1.05470541       0.00000000
Si       0.13926321      -3.16653165       1.95801161       0.00000000
