10
Lattice="16.28999089631971 0.0 0.0 0.0 16.28999089631971 0.0 0.0 0.0 34.385447050020396" Properties=species:S:1:pos:R:3:initial_magmoms:R:1 pbc="T T T"
Si      -0.19989459      -2.10660651      -0.76713975       0.00000000
Si      -1.25301051       1.90273716      -0.34694935       0.00000000
Si       1.44629136      -0.10391391       1.81362703       0.00000000
Si       0.32347053      -0.91831617      -2.73907747       0.00000000
Si      -0.13926321       3.16653165      -1.95801161       0.00000000
Si       0.08537589      -0.35435637       3.75031965       0.00000000
Si      -1.24594065       3.39288120       1.41870995       0.00000000
Si       2.75457384      -2.10144258       1.83528988       0.00000000
Si       0.63506565       1.31512428      -3.70180176       0.00000000
Si       2.13861636       2.62120761      -2.13121120       0.00000000
