10
Lattice="16.28999089631971 0.0 0.0 0.0 16.28999089631971 0.0 0.0 0.0 34.385447050020396" Properties=species:S:1:pos:R:3:initial_magmoms:R:1 pbc="T T T"
Si       1.58618988      -1.56861297      -0.67797824       0.00000000
Si      -1.30057731       1.41625260      -1.32012682       0.00000000
Si       1.20031236       1.32103755       1.52540805       0.00000000
Si      -1.83673008      -1.04448222       1.07193253       0.00000000
Si      -1.72822239       2.95186203       0.51966755       0.00000000
Si       0.28450485      -3.50860536      -0.36902482       0.00000000
Si       3.15874503      -1.21546206       1.06976624       0.00000000
Si      -0.52398414       2.45990403       2.54603746       0.00000000
Si      -3.32096085       0.04610070      -1.67780444       0.00000000
Si       0.25487334       2.17862460      -3.00958793       0.00000000
