10
Lattice="16.28999089631971 0.0 0.0 0.0 16.28999089631971 0.0 0.0 0.0 34.385447050020396" Properties=species:S:1:pos:R:3:initial_magmoms:R:1 pbc="T T T"
Si       0.74681505      -1.27879758       1.81500245       0.00000000
Si      -1.51578450       1.43892828       1.08850632       0.00000000
Si       1.83673008       1.04448222      -1.07193253       0.00000000
Si      -1.72002852      -1.03175973      -1.51533311       0.00000000
Si      -1.48423077       1.09058292      -2.74973697       0.00000000
Si      -2.79530861      -1.92329514       0.44047782       0.00000000
Si       0.53615277       2.46073482      -2.39205935       0.00000000
Si      -1.12444983      -2.75587704       1.81871608       0.00000000
Si      -0.08210160      -2.52491742      -2.41812353       0.00000000
Si       2.12123493      -2.46412314      -1.44095735       0.00000000
