10
Lattice="16.28999089631971 0.0 0.0 0.0 16.28999089631971 0.0 0.0 0.0 34.385447050020396" Properties=species:S:1:pos:R:3:initial_magmoms:R:1 pbc="T T T"
Si      -1.46509002       2.01945501       0.06584817       0.00000000
Si       1.85614776       0.84768273       1.47474592       0.00000000
Si      -0.27750015      -0.41124105      -2.50305563       0.00000000
Si      -0.89976186      -1.96415046       1.60677924       0.00000000
Si      -1.98594648      -0.37514241       2.94419851       0.00000000
Si      -3.17162065       1.07963604       1.53313588       0.00000000
Si       0.73625913       2.32875324       2.94378588       0.00000000
Si       2.97119826       2.59688664       0.11763268       0.00000000
Si      -0.47954502       3.67334613       1.49386768       0.00000000
Si      -1.85217300       2.75024070      -2.46619441       0.00000000
