10
Lattice="16.28999089631971 0.0 0.0 0.0 16.28999089631971 0.0 0.0 0.0 34.385447050020396" Properties=species:S:1:pos:R:3:initial_magmoms:R:1 pbc="T T T"
Si      -1.35736425       1.35597960      -1.35715997       0.00000000
Si       1.35707103      -1.35741312      -1.35746944       0.00000000
Si      -1.35786924      -1.35778779       1.35702243       0.00000000
Si       1.35731538       1.35822762       1.35760698       0.00000000
Si       0.00060273       2.71437012       2.71270382       0.00000000
Si      -0.00099369       2.71124244      -2.71617675       0.00000000
Si       0.00013032      -2.71321353      -2.71531711       0.00000000
Si      -2.71477737       2.71463076      -0.00024070       0.00000000
Si       2.71448415       2.71503801      -0.00027508       0.00000000
Si      -2.71637379      -0.00011403      -2.71325399       0.00000000
