10
Lattice="16.28999089631971 0.0 0.0 0.0 16.28999089631971 0.0 0.0 0.0 34.385447050020396" Properties=species:S:1:pos:R:3:initial_magmoms:R:1 pbc="T T T"
Si      -1.27236303       1.35534429      -1.48428304       0.00000000
Si       1.50460956       1.07955459       1.52919046       0.00000000
Si      -1.79418060      -0.87607620       1.35654103       0.00000000
Si       1.44386415      -1.36423863      -1.46296405       0.00000000
Si       2.07184365      -0.99378774       2.76159995       0.00000000
Si      -2.63101419      -2.60299539      -0.08004937       0.00000000
Si      -2.77917174       2.54606184      -0.05852406       0.00000000
Si       2.74007574       2.59732647      -0.02606418       0.00000000
Si      -0.47413674      -3.43837917       1.70689455       0.00000000
Si      -2.62555704      -0.00773775      -2.85732909       0.00000000
