10
Lattice="16.28999089631971 0.0 0.0 0.0 16.28999089631971 0.0 0.0 0.0 34.385447050020396" Properties=species:S:1:pos:R:3:initial_magmoms:R:1 pbc="T T T"
Si      -0.74665215      -2.16331200       0.52073350       0.00000000
Si       2.13804621      -0.18034659       0.99470277       0.00000000
Si      -0.92983320       1.60072056       1.49349834       0.00000000
Si      -0.28745334       0.52333254      -2.34869927       0.00000000
Si       0.88272252       3.16625472       1.51822149       0.00000000
Si       0.45758610      -2.65527000       2.54710341       0.00000000
Si      -2.94060564       2.23987500       0.35265734       0.00000000
Si       0.94850154       2.48474628      -2.63282638       0.00000000
Si       1.76689485      -0.83764809       3.32376794       0.00000000
Si      -0.31900707      -3.69892143      -1.31906087       0.00000000
