10
Lattice="16.28999089631971 0.0 0.0 0.0 16.28999089631971 0.0 0.0 0.0 34.385447050020396" Properties=species:S:1:pos:R:3:initial_magmoms:R:1 pbc="T T T"
Si      -0.22766252       0.03606606       2.30613007       0.00000000
Si       0.37586894       2.14656588      -0.90808578       0.00000000
Si      -1.62785060      -1.52118626      -0.84196253       0.00000000
Si       2.06628876      -1.07907729      -0.52571939       0.00000000
Si       2.44817523       2.11970367       0.16793862       0.00000000
Si      -2.53300445       0.92970288       2.05979259       0.00000000
Si       1.21138956       1.16528886      -2.96069180       0.00000000
Si       1.70867439      -3.32780984      -0.04535443       0.00000000
Si      -0.49460333      -3.59033948      -0.97898861       0.00000000
Si      -0.36018330      -2.28301744       2.97509931       0.00000000
