10
Lattice="16.28999089631971 0.0 0.0 0.0 16.28999089631971 0.0 0.0 0.0 34.385447050020396" Properties=species:S:1:pos:R:3:initial_magmoms:R:1 pbc="T T T"
Si       1.35738054      -1.35306369       1.35691927       0.00000000
Si      -1.35739683      -1.35537687      -1.35722874       0.00000000
Si       1.35742941       1.35937174      -1.35681611       0.00000000
Si      -1.35374787       1.35699400       1.36314304       0.00000000
Si       2.71360449      -2.71173114       0.00089402       0.00000000
Si       0.00016290      -2.71293660      -2.71456063       0.00000000
Si      -2.71477737      -2.71365336       0.00020631       0.00000000
Si       0.00006516       2.71608124      -2.71359784       0.00000000
Si       2.71505430       0.00249237      -2.71473256       0.00000000
Si      -2.71464705       0.00304623      -2.71548904       0.00000000
