10
Lattice="16.28999089631971 0.0 0.0 0.0 16.28999089631971 0.0 0.0 0.0 34.385447050020396" Properties=species:S:1:pos:R:3:initial_magmoms:R:1 pbc="T T T"
Si      -1.24592436      -1.54745226      -1.27078368       0.00000000
Si       0.41295150      -0.48785292       2.28807770       0.00000000
Si       1.65156165       1.27736406      -1.24853628       0.00000000
Si      -2.45952936      -0.02823057      -2.68701788       0.00000000
Si       2.42958834      -1.68358779       2.21469911       0.00000000
Si       0.89694369       1.65611212       3.18842675       0.00000000
Si       0.25322805       2.69603151      -2.66507995       0.00000000
Si      -3.47118723      -0.93957462       1.23935536       0.00000000
Si       0.26088435      -2.73816981      -2.69654265       0.00000000
Si       0.99847926       3.48495947       1.68550679       0.00000000
