10
Lattice="16.28999089631971 0.0 0.0 0.0 16.28999089631971 0.0 0.0 0.0 34.385447050020396" Properties=species:S:1:pos:R:3:initial_magmoms:R:1 pbc="T T T"
Si       0.40532778      -0.47563542      -2.27724627       0.00000000
Si       1.18309383      -1.69657092       1.20359448       0.00000000
Si       1.08442530       2.14103610       0.09198112       0.00000000
Si      -2.15327736       0.49963059       1.07629948       0.00000000
Si       2.03955687      -0.06066396       2.76803003       0.00000000
Si       2.76578136      -0.91372239      -2.02722955       0.00000000
Si       3.13186653       1.39743765       1.20435096       0.00000000
Si      -3.56084739      -0.48632166      -0.65882553       0.00000000
Si      -0.85968846      -2.43615321      -2.64578970       0.00000000
Si      -0.15789897       1.49069790      -3.45037523       0.00000000
