10
Lattice="16.28999089631971 0.0 0.0 0.0 16.28999089631971 0.0 0.0 0.0 34.385447050020396" Properties=species:S:1:pos:R:3:initial_magmoms:R:1 pbc="T T T"
Si       0.80690886      -2.13650585       0.50876736       0.00000000
Si      -2.24898111      -0.43615009       0.66683735       0.00000000
Si       0.80702289       1.39786119       1.76634702       0.00000000
Si       0.36269685      -0.01574591      -2.43397523       0.00000000
Si      -2.14744554       1.39269726      -0.83608261       0.00000000
Si       3.08203542       1.45585359       1.03761583       0.00000000
Si       2.93239548      -2.26472444      -0.38240077       0.00000000
Si      -2.73297330      -2.58011513      -0.23351170       0.00000000
Si       2.13770412      -1.75318586      -2.59125435       0.00000000
Si      -0.50125959       3.39538986       1.74468417       0.00000000
