10
Lattice="16.28999089631971 0.0 0.0 0.0 16.28999089631971 0.0 0.0 0.0 34.385447050020396" Properties=species:S:1:pos:R:3:initial_magmoms:R:1 pbc="T T T"
Si       1.25911926      -1.98385226       0.00051578       0.00000000
Si       1.46469906       1.83734910       0.15091781       0.00000000
Si      -0.95527818       0.61208046       2.10270565       0.00000000
Si      -0.81767655       0.49884867      -2.19317381       0.00000000
Si       1.45733598       0.55684107      -2.92190500       0.00000000
Si      -2.13376194      -2.62908287       0.12385645       0.00000000
Si      -1.91431935       2.59908579       1.46960044       0.00000000
Si      -0.22055031      -3.36861629      -1.18977152       0.00000000
Si       2.54461203       1.35640314       2.15844449       0.00000000
Si      -0.10347408       3.65519907       0.36366069       0.00000000
