10
Lattice="16.28999089631971 0.0 0.0 0.0 16.28999089631971 0.0 0.0 0.0 34.385447050020396" Properties=species:S:1:pos:R:3:initial_magmoms:R:1 pbc="T T T"
Si      -0.74567475      -1.83160266      -1.25850807       0.00000000
Si      -1.54303767      -0.04261464       1.78728777       0.00000000
Si      -0.15024267       1.98868646      -1.30840138       0.00000000
Si       2.41735455       0.18147223      -0.06608887       0.00000000
Si      -0.15516225       1.45305497       3.04476427       0.00000000
Si       0.97997382      -1.71017700      -2.78642626       0.00000000
Si       2.53226421       0.00477786      -2.39374423       0.00000000
Si      -1.81099188       1.45817003      -2.84746046       0.00000000
Si      -3.48096123       0.91382339       0.76497347       0.00000000
Si      -3.47578101       0.43387438      -1.61309099       0.00000000
