10
Lattice="16.28999089631971 0.0 0.0 0.0 16.28999089631971 0.0 0.0 0.0 34.385447050020396" Properties=species:S:1:pos:R:3:initial_magmoms:R:1 pbc="T T T"
Si       2.26497789       0.39086226       0.38601124       0.00000000
Si      -1.03366566       1.68888204      -1.25692633       0.00000000
Si      -0.19766286      -2.15586747      -0.94491261       0.00000000
Si      -0.78967404       0.46545417       2.19754076       0.00000000
Si       0.09668115       2.72088612       2.21022900       0.00000000
Si       1.74026070      -3.11230550       0.07740168       0.00000000
Si      -2.35610415      -2.68888441      -0.08245635       0.00000000
Si       3.07602441       0.93369393      -1.76108604       0.00000000
Si      -3.24184032       0.78685587      -1.57884307       0.00000000
Si      -0.28468404       3.68347851       0.07932727       0.00000000
