10
Lattice="16.28999089631971 0.0 0.0 0.0 16.28999089631971 0.0 0.0 0.0 34.385447050020396" Properties=species:S:1:pos:R:3:initial_magmoms:R:1 pbc="T T T"
Si      -0.86739363      -1.75492170      -1.30128359       0.00000000
Si      -1.13754699       1.90348650      -0.82593890       0.00000000
Si       2.38018077      -0.02972925      -0.05419149       0.00000000
Si      -1.09250514      -0.39858372       2.11996715       0.00000000
Si       3.00949605      -2.09805426       1.00907589       0.00000000
Si       3.08498391       1.39145922       1.75052970       0.00000000
Si      -3.16444653      -1.39406562       1.63382543       0.00000000
Si      -1.26084600       3.54006135       0.79770843       0.00000000
Si      -3.48563646       1.40095629      -0.90155254       0.00000000
Si      -1.73939733      -0.88299945      -3.33545900       0.00000000
