10
Lattice="16.28999089631971 0.0 0.0 0.0 16.28999089631971 0.0 0.0 0.0 34.385447050020396" Properties=species:S:1:pos:R:3:initial_magmoms:R:1 pbc="T T T"
Si       1.35640314       1.35627282       1.35805399       0.00000000
Si       1.35760860      -1.35707103      -1.35757259       0.00000000
Si      -1.35773892       1.35793440      -1.35695366       0.00000000
Si      -1.35723393      -1.35765747       1.35784768       0.00000000
Si       0.00589698      -2.71586880       2.71153471       0.00000000
Si      -2.71448415       0.00298107      -2.71397608       0.00000000
Si       2.71464705      -2.71490769      -0.00027508       0.00000000
Si       2.71469592       2.71492398      -0.00013754       0.00000000
Si      -2.71505430      -2.71480995       0.00058455       0.00000000
Si      -2.71554300       2.71544526      -0.00010316       0.00000000
