10
Lattice="16.28999089631971 0.0 0.0 0.0 16.28999089631971 0.0 0.0 0.0 34.385447050020396" Properties=species:S:1:pos:R:3:initial_magmoms:R:1 pbc="T T T"
Si       1.35725022      -1.35710361      -1.35898240       0.00000000
Si      -1.35822762       1.35918873      -1.35905117       0.00000000
Si      -1.35527913      -1.35495333       1.38116102       0.00000000
Si       1.35448092       1.35883035       1.39041071       0.00000000
Si       0.21080889      -2.56671756       2.81647916       0.00000000
Si       2.71534752       2.71430496       0.00361047       0.00000000
Si      -2.71494027       2.71533123      -0.00395433       0.00000000
Si      -0.00057015      -2.71425609      -2.71624552       0.00000000
Si       2.71448415       0.00055386      -2.71683008       0.00000000
Si      -2.71554300       0.00096111      -2.71665815       0.00000000
