10
Lattice="16.28999089631971 0.0 0.0 0.0 16.28999089631971 0.0 0.0 0.0 34.385447050020396" Properties=species:S:1:pos:R:3:initial_magmoms:R:1 pbc="T T T"
Si       1.36086660       1.35547461      -1.38680024       0.00000000
Si      -1.35448092      -1.35883035      -1.39041071       0.00000000
Si       1.47734010      -1.30763088       1.42682492       0.00000000
Si      -1.44386415       1.36423863       1.46296405       0.00000000
Si      -2.70976005      -2.71378368      -0.00924969       0.00000000
Si       2.72142369       2.71368594      -0.01423558       0.00000000
Si      -2.71622718       2.71958292      -0.02131899       0.00000000
Si       2.71337643      -2.72323188      -0.02853994       0.00000000
Si      -2.71270854       0.00035838      -2.74946188       0.00000000
Si       0.06074541       2.44379322       2.99215450       0.00000000
