10
Lattice="16.28999089631971 0.0 0.0 0.0 16.28999089631971 0.0 0.0 0.0 34.385447050020396" Properties=species:S:1:pos:R:3:initial_magmoms:R:1 pbc="T T T"
Si       1.82180844      -0.81076959      -1.25881753       0.00000000
Si      -2.19721149      -0.05652630      -0.90041782       0.00000000
Si       1.01019177       2.15902773      -0.39347289       0.00000000
Si       0.33446628      -1.85487714       1.58668296       0.00000000
Si       2.10486348       1.31162193      -2.27566454       0.00000000
Si      -0.79698825       3.32646687      -1.34364648       0.00000000
Si      -2.25482922       1.69171650      -2.46475022       0.00000000
Si      -0.06900444      -0.63545661       3.69234575       0.00000000
Si       2.90256849       2.22826023       1.27167770       0.00000000
Si      -3.83751675       0.90886797       0.76607380       0.00000000
