10
Lattice="16.28999089631971 0.0 0.0 0.0 16.28999089631971 0.0 0.0 0.0 34.385447050020396" Properties=species:S:1:pos:R:3:initial_magmoms:R:1 pbc="T T T"
Si      -1.29140604       1.36016613      -1.31627221       0.00000000
Si       1.32530553       1.38855960       1.34096785       0.00000000
Si      -1.38948813      -1.32634809       1.34420009       0.00000000
Si       1.29275811      -1.30518738      -1.57087596       0.00000000
Si      -2.12939622      -0.42292098      -2.60059757       0.00000000
Si       0.34723764       2.42240445      -2.64637219       0.00000000
Si       2.05125309       0.62162640      -2.90156053       0.00000000
Si      -0.47736216      -2.36866374      -2.84633747       0.00000000
Si       2.67662619      -2.66403402      -0.03500097       0.00000000
Si      -0.03329676      -2.67848325       2.69974394       0.00000000
