10
Lattice="16.28999089631971 0.0 0.0 0.0 16.28999089631971 0.0 0.0 0.0 34.385447050020396" Properties=species:S:1:pos:R:3:initial_magmoms:R:1 pbc="T T T"
Si      -1.35365013      -1.33364601      -1.37091415       0.00000000
Si      -1.32410007       1.32732549       1.44914109       0.00000000
Si       1.36199061       1.38030057      -1.36757876       0.00000000
Si       1.29766140      -1.44622620       1.45935357       0.00000000
Si       2.30796720       0.38903778       2.62801242       0.00000000
Si       0.53295993       2.12647772       2.78529154       0.00000000
Si      -2.71477737      -2.68820838       0.00113472       0.00000000
Si       2.72287350      -2.69410536       0.00821813       0.00000000
Si       0.00257382      -2.69231346      -2.72693940       0.00000000
Si      -2.71103067       0.01941768      -2.72783342       0.00000000
