10
Lattice="16.28999089631971 0.0 0.0 0.0 16.28999089631971 0.0 0.0 0.0 34.385447050020396" Properties=species:S:1:pos:R:3:initial_magmoms:R:1 pbc="T T T"
Si       2.12548662      -0.12821859      -0.89116813       0.00000000
Si      -0.80690886       2.13650585      -0.50876736       0.00000000
Si       0.59724027      -0.33309792       2.26098195       0.00000000
Si      -1.52324532      -1.63934415      -0.81565765       0.00000000
Si       1.33079526       0.38331999      -3.10002171       0.00000000
Si      -3.05588997       1.70035576       0.15806999       0.00000000
Si       2.58258402      -2.35885716      -0.16484393       0.00000000
Si       3.27140667       1.45811564       0.46585430       0.00000000
Si      -3.53988216      -0.44360928      -0.74227906       0.00000000
Si      -0.44421201       2.12075993      -2.94274259       0.00000000
