10
Lattice="16.28999089631971 0.0 0.0 0.0 16.28999089631971 0.0 0.0 0.0 34.385447050020396" Properties=species:S:1:pos:R:3:initial_magmoms:R:1 pbc="T T T"
Si       0.93270024      -1.46548098      -1.49367027       0.00000000
Si       1.07786043       2.03199831      -0.35654290       0.00000000
Si       0.94926717      -0.97156818       1.94628616       0.00000000
Si      -2.12789754       0.38239146      -1.00041076       0.00000000
Si      -0.87257385      -2.96420985      -1.52392948       0.00000000
Si      -2.57355936       2.40717330       0.04081555       0.00000000
Si       0.91025262       1.94732289      -2.79354405       0.00000000
Si       1.00378980      -0.31563504      -3.45921229       0.00000000
Si       3.20025195      -0.19106541       1.89646162       0.00000000
Si       1.09473687      -3.32555463       1.36726930       0.00000000
