10
Lattice="16.28999089631971 0.0 0.0 0.0 16.28999089631971 0.0 0.0 0.0 34.385447050020396" Properties=species:S:1:pos:R:3:initial_magmoms:R:1 pbc="T T T"
Si      -1.09230966      -1.45810161       1.56367908       0.00000000
Si       1.39751910       1.38901150       1.40495577       0.00000000
Si      -2.04744123       0.74359845      -1.11236983       0.00000000
Si       1.09175580      -0.67640967      -2.11047676       0.00000000
Si       2.89893582      -1.84384881      -1.16030317       0.00000000
Si      -3.13186653      -1.39743765      -1.20435096       0.00000000
Si      -1.94877270      -3.09400857      -0.00075648       0.00000000
Si      -2.60089398       0.39392478       2.58245167       0.00000000
Si      -3.23910360       2.17943000       0.38429197       0.00000000
Si       2.01000681       1.25219994      -3.19857046       0.00000000
