10
Lattice="16.28999089631971 0.0 0.0 0.0 16.28999089631971 0.0 0.0 0.0 34.385447050020396" Properties=species:S:1:pos:R:3:initial_magmoms:R:1 pbc="T T T"
Si      -1.35705474       1.35687121      -1.35702243       0.00000000
Si       1.35755973       1.35632224       1.35771014       0.00000000
Si      -1.35738054      -1.35752076       1.35743505       0.00000000
Si       1.35757602      -1.35862848      -1.35746944       0.00000000
Si      -2.71402803      -0.00018455      -2.71352907       0.00000000
Si      -2.71393029       2.71449773       0.00041263       0.00000000
Si       0.00169416      -2.71532484      -2.71318522       0.00000000
Si      -0.00249237      -2.71144782       2.71751778       0.00000000
Si       2.71429317       0.00124409      -2.71504203       0.00000000
Si      -2.71487511      -2.71475469       0.00006877       0.00000000
