10
Lattice="16.28999089631971 0.0 0.0 0.0 16.28999089631971 0.0 0.0 0.0 34.385447050020396" Properties=species:S:1:pos:R:3:initial_magmoms:R:1 pbc="T T T"
Si      -1.07991297       0.48094596      -2.00752668       0.00000000
Si       1.22880357       1.95566337       0.51557568       0.00000000
Si      -1.83914100      -0.21380625       1.48332024       0.00000000
Si       0.84336588      -2.19771485       0.39797739       0.00000000
Si       0.40922109       2.07420570       2.69826192       0.00000000
Si       0.72845622      -2.02102048       2.72563275       0.00000000
Si      -3.49989021      -0.74432268      -0.05573884       0.00000000
Si      -2.54461203      -1.35640314      -2.15844449       0.00000000
Si      -1.89617229       1.80089208       2.74052166       0.00000000
Si       1.41206607       0.10616193       3.55054009       0.00000000
