10
Lattice="16.28999089631971 0.0 0.0 0.0 16.28999089631971 0.0 0.0 0.0 34.385447050020396" Properties=species:S:1:pos:R:3:initial_magmoms:R:1 pbc="T T T"
Si       1.07991297      -0.48094596       2.00752668       0.00000000
Si       1.54021950       0.01664838      -1.77057643       0.00000000
Si      -1.46469906      -1.83734910      -0.15091781       0.00000000
Si      -1.56817314       1.81784997       0.21274288       0.00000000
Si      -0.00736308      -1.28050803      -3.07282281       0.00000000
Si      -2.41997724      -1.22526864       1.95178784       0.00000000
Si      -2.28237561      -1.33850043      -2.34409162       0.00000000
Si      -0.75922803      -0.69475221       3.49084692       0.00000000
Si      -3.37901841       0.76173669       1.31868263       0.00000000
Si       1.58272011       2.34882252      -2.40227183       0.00000000
