10
Lattice="16.28999089631971 0.0 0.0 0.0 16.28999089631971 0.0 0.0 0.0 34.385447050020396" Properties=species:S:1:pos:R:3:initial_magmoms:R:1 pbc="T T T"
Si      -1.34804637      -1.32540327      -1.36533339       0.00000000
Si      -1.35273789       1.36288656       1.35526877       0.00000000
Si       1.36184400      -1.35172791       1.35918871       0.00000000
Si       1.36525335       1.37422440      -1.37884000       0.00000000
Si       0.07587882      -2.62005102      -2.69024667       0.00000000
Si      -2.42722629       0.25317918      -2.87907446       0.00000000
Si       2.70860739      -2.70140328       0.00519221       0.00000000
Si       0.00254124      -2.70961344       2.71431994       0.00000000
Si      -2.71257822       0.00491958       2.71342591       0.00000000
Si      -2.71420722      -2.71311579      -0.00553606       0.00000000
