10
Lattice="16.28999089631971 0.0 0.0 0.0 16.28999089631971 0.0 0.0 0.0 34.385447050020396" Properties=species:S:1:pos:R:3:initial_magmoms:R:1 pbc="T T T"
Si      -1.35475785      -1.35540945      -1.35918871       0.00000000
Si      -1.35808101       1.35669636       1.35640349       0.00000000
Si       1.35736562      -1.35832536       1.35650664       0.00000000
Si       1.35930276       1.35788553      -1.35513123       0.00000000
Si       2.70606615       0.00821016      -2.70912773       0.00000000
Si      -0.00254124       2.70961344      -2.71431994       0.00000000
Si       2.71261962       0.00027693       2.71332276       0.00000000
Si       0.00091224       2.71357191       2.71356346       0.00000000
Si      -2.71458189       0.00117288       2.71359784       0.00000000
Si       2.71468356       2.71437012       0.00089402       0.00000000
