10
Lattice="16.28999089631971 0.0 0.0 0.0 16.28999089631971 0.0 0.0 0.0 34.385447050020396" Properties=species:S:1:pos:R:3:initial_magmoms:R:1 pbc="T T T"
Si       1.34475652       1.34511417      -1.36720052       0.00000000
Si       1.29103137      -1.33683885       1.43906615       0.00000000
Si      -1.37502261       1.32129819       1.40096705       0.00000000
Si      -1.37292120      -1.37031480      -1.36163008       0.00000000
Si      -0.56759247      -2.14905825       2.66494241       0.00000000
Si      -2.35996488      -0.27712548       2.84120231       0.00000000
Si       2.66593085       2.70150102      -0.02166284       0.00000000
Si       2.67071522      -2.71809076      -0.00385117       0.00000000
Si       2.70040212      -0.01124010      -2.72126580       0.00000000
Si      -0.01130526       2.70205488      -2.72102510       0.00000000
