10
Lattice="16.28999089631971 0.0 0.0 0.0 16.28999089631971 0.0 0.0 0.0 34.385447050020396" Properties=species:S:1:pos:R:3:initial_magmoms:R:1 pbc="T T T"
Si       2.05198614      -1.11773835       0.56395603       0.00000000
Si       0.56234709       2.33425926       0.17540026       0.00000000
Si      -1.97091081      -0.77678865       1.14479533       0.00000000
Si      -0.40721742      -0.92401767      -2.35440726       0.00000000
Si       3.26681289      -0.42518529      -1.45770307       0.00000000
Si      -1.09890711      -1.64871090       3.17897074       0.00000000
Si       3.05833347       0.38783232       2.15614066       0.00000000
Si      -1.00895373       3.27458322       1.60896474       0.00000000
Si       2.72600118       2.51937882       1.08063205       0.00000000
Si       0.10735110       3.42174708      -1.80833167       0.00000000
