10
Lattice="16.28999089631971 0.0 0.0 0.0 16.28999089631971 0.0 0.0 0.0 34.385447050020396" Properties=species:S:1:pos:R:3:initial_magmoms:R:1 pbc="T T T"
Si       1.35586557       1.34858394       1.37765371       0.00000000
Si      -1.35607734      -1.37531583       1.37132678       0.00000000
Si       1.67964561      -0.99170262      -1.35183022       0.00000000
Si      -1.38386808       1.35884664      -1.53587499       0.00000000
Si      -2.67662619       2.66403402       0.03500097       0.00000000
Si       2.71723716       2.66830200      -0.02915888       0.00000000
Si      -2.69851995      -2.73153978      -0.01241659       0.00000000
Si       0.00604359       2.69759142       2.73550138       0.00000000
Si      -2.70992295      -0.01444923       2.73474490       0.00000000
Si       2.72553351      -2.72046258      -0.00084244       0.00000000
