10
Lattice="16.28999089631971 0.0 0.0 0.0 16.28999089631971 0.0 0.0 0.0 34.385447050020396" Properties=species:S:1:pos:R:3:initial_magmoms:R:1 pbc="T T T"
Si      -0.45499599       1.08748782      -1.98373193       0.00000000
Si      -1.57130082       0.94032396       1.43356447       0.00000000
Si       2.16365409       0.18511956       0.90523178       0.00000000
Si      -0.56234709      -2.33425926      -0.17540026       0.00000000
Si       0.20701332       3.25744614      -0.97568761       0.00000000
Si      -0.61963902       3.17648484       1.33611606       0.00000000
Si      -3.51699471       0.52365834       0.09411302       0.00000000
Si       3.39776820      -0.38273355      -1.05559943       0.00000000
Si      -2.72331333       0.57324510      -2.29186010       0.00000000
Si       2.49598638      -1.94642694       1.98074040       0.00000000
