10
Lattice="16.28999089631971 0.0 0.0 0.0 16.28999089631971 0.0 0.0 0.0 34.385447050020396" Properties=species:S:1:pos:R:3:initial_magmoms:R:1 pbc="T T T"
Si      -0.81907749      -1.85940576      -1.15868706       0.00000000
Si       0.69714684      -1.04361885       1.97547942       0.00000000
Si       1.91984166       0.96221772      -0.99233017       0.00000000
Si      -1.84938741       1.68098139       0.07351613       0.00000000
Si       0.21129759       1.14590376       2.56298950       0.00000000
Si      -2.18439126      -0.51588801      -2.42623850       0.00000000
Si       0.56881422       2.20560084      -2.44095548       0.00000000
Si      -0.86271840       3.43707597      -1.13351690       0.00000000
Si      -3.65520626       0.70667649      -1.04167332       0.00000000
Si       2.75667525       2.68913691       0.44426022       0.00000000
