10
Lattice="16.28999089631971 0.0 0.0 0.0 16.28999089631971 0.0 0.0 0.0 34.385447050020396" Properties=species:S:1:pos:R:3:initial_magmoms:R:1 pbc="T T T"
Si       2.07283964       0.80123994      -0.79124396       0.00000000
Si      -0.70480314      -1.42118847      -1.80472120       0.00000000
Si       0.21190032      -1.39403304       1.94865876       0.00000000
Si      -1.29718899       1.75378140       1.09201364       0.00000000
Si      -0.07548786      -3.48951348      -0.74145381       0.00000000
Si       3.28369652       1.32427926       1.12093181       0.00000000
Si      -0.78555267      -0.20580786       3.67666598       0.00000000
Si      -0.89507034      -3.37097115       1.44123243       0.00000000
Si       0.37695060       3.21654195       1.98479788       0.00000000
Si      -3.08498391      -1.39145922      -1.75052970       0.00000000
