10
Lattice="16.28999089631971 0.0 0.0 0.0 16.28999089631971 0.0 0.0 0.0 34.385447050020396" Properties=species:S:1:pos:R:3:initial_magmoms:R:1 pbc="T T T"
Si       1.36345901       1.32680421       1.27631974       0.00000000
Si       1.38737925      -1.25959167      -1.33511888       0.00000000
Si      -0.95581575      -1.51498629       1.47527404       0.00000000
Si      -1.33247313       1.45707534      -1.30575370       0.00000000
Si      -1.15440714      -0.24267213       3.41227613       0.00000000
Si      -2.56082058      -2.57455305       0.06003702       0.00000000
Si       0.07112297       1.81420101       3.21459408       0.00000000
Si       0.02787983      -2.61757494      -2.67769941       0.00000000
Si      -2.69394246       0.10710675      -2.67333246       0.00000000
Si       2.66684309      -2.73268008      -0.04157203       0.00000000
