10
Lattice="16.28999089631971 0.0 0.0 0.0 16.28999089631971 0.0 0.0 0.0 34.385447050020396" Properties=species:S:1:pos:R:3:initial_magmoms:R:1 pbc="T T T"
Si      -1.45523620       1.82289987       0.43143445       0.00000000
Si       0.09013257      -0.81665028      -2.23354235       0.00000000
Si      -0.23579775      -2.12234265       1.23440385       0.00000000
Si       2.02038354       1.37015190       0.35767762       0.00000000
Si       1.48423077      -1.09058292       2.74973697       0.00000000
Si      -0.63680868       2.30216796       2.60490538       0.00000000
Si      -0.87060276       3.33296658      -1.38903530       0.00000000
Si       3.32096085      -0.04610070       1.67780444       0.00000000
Si       1.30293936       0.73572156      -3.52763937       0.00000000
Si      -0.03155373       0.34834536       3.83824329       0.00000000
