10
Lattice="16.28999089631971 0.0 0.0 0.0 16.28999089631971 0.0 0.0 0.0 34.385447050020396" Properties=species:S:1:pos:R:3:initial_magmoms:R:1 pbc="T T T"
Si       0.10604627       2.02276188       1.18547333       0.00000000
Si       0.50723639       0.31265397      -2.31063456       0.00000000
Si       1.59536115      -1.40752116       1.08131976       0.00000000
Si      -2.15276327      -1.01480184       0.33711511       0.00000000
Si      -1.25046017       1.08393660       2.97647473       0.00000000
Si      -3.42879155       0.98124444       0.01719273       0.00000000
Si      -1.96819757      -1.65403773       2.62037884       0.00000000
Si       0.27343742      -2.28460734       2.92393374       0.00000000
Si       0.69440035      -1.91827782      -3.14788628       0.00000000
Si      -1.45960748       1.25934732      -3.22931106       0.00000000
