10
Lattice="16.28999089631971 0.0 0.0 0.0 16.28999089631971 0.0 0.0 0.0 34.385447050020396" Properties=species:S:1:pos:R:3:initial_magmoms:R:1 pbc="T T T"
Si      -1.96684387       0.94669335      -0.91867650       0.00000000
Si       1.60153669       1.62351027      -0.70122281       0.00000000
Si      -0.50723639      -0.31265397       2.31063456       0.00000000
Si       0.18716396      -2.23093179      -0.83725172       0.00000000
Si      -3.07381453      -1.03024476      -1.42610283       0.00000000
Si       0.01547061      -1.69402968      -3.15603564       0.00000000
Si      -2.07096955      -2.99828853      -0.57382466       0.00000000
Si      -2.96429686       2.13491853       0.80933072       0.00000000
Si       3.33412480       0.43803810      -1.90694919       0.00000000
Si      -0.40119012       1.71010791       3.49610790       0.00000000
