10
Lattice="16.28999089631971 0.0 0.0 0.0 16.28999089631971 0.0 0.0 0.0 34.385447050020396" Properties=species:S:1:pos:R:3:initial_magmoms:R:1 pbc="T T T"
Si      -1.35436806       1.35076680       1.35616279       0.00000000
Si       1.35723230       1.35632169      -1.35674734       0.00000000
Si      -1.35774521      -1.35871632      -1.35719435       0.00000000
Si       1.35941516      -1.35645201       1.36087360       0.00000000
Si       2.71612781       0.00418653       2.68485159       0.00000000
Si       0.00513135       2.70875007       2.69874332       0.00000000
Si      -2.70308997       0.00097740       2.70788985       0.00000000
Si      -0.03707767      -2.71730232       2.69956857       0.00000000
Si       2.71477574       2.71311579       0.00048140       0.00000000
Si       2.71464542      -0.00232947      -2.71366661       0.00000000
