10
Lattice="16.28999089631971 0.0 0.0 0.0 16.28999089631971 0.0 0.0 0.0 34.385447050020396" Properties=species:S:1:pos:R:3:initial_magmoms:R:1 pbc="T T T"
Si      -1.38737925       1.25959167       1.33511888       0.00000000
Si       1.27946384      -1.47308841       1.29354686       0.00000000
Si      -1.35949941      -1.35798327      -1.34258053       0.00000000
Si       1.35368108       1.36500426      -1.34154897       0.00000000
Si      -2.34319500      -0.25539462       2.81039293       0.00000000
Si      -0.02392024       2.58639588       2.61143862       0.00000000
Si      -0.00513135      -2.70875007      -2.69874332       0.00000000
Si       2.70964439       0.00436572      -2.69826192       0.00000000
Si       2.71099646      -2.70456354      -0.01389173       0.00000000
Si      -2.70822132      -2.70777267       0.00914653       0.00000000
