10
Lattice="16.28999089631971 0.0 0.0 0.0 16.28999089631971 0.0 0.0 0.0 34.385447050020396" Properties=species:S:1:pos:R:3:initial_magmoms:R:1 pbc="T T T"
Si      -1.13324726       2.06915321       0.13702608       0.00000000
Si       1.29233604      -0.48739680      -1.93827435       0.00000000
Si      -1.22553011      -2.05687314       0.19768205       0.00000000
Si       2.20327772       0.26252964       0.93363418       0.00000000
Si      -2.58970358       1.08864215       1.67354064       0.00000000
Si       3.00485975      -1.26480447      -0.58331505       0.00000000
Si       2.56089209       2.51126218       0.45326922       0.00000000
Si       1.80674654      -0.17394462       3.12821779       0.00000000
Si      -0.07112297      -1.81420101      -3.21459408       0.00000000
Si       0.49460333       3.59033948       0.97898861       0.00000000
