10
Lattice="16.28999089631971 0.0 0.0 0.0 16.28999089631971 0.0 0.0 0.0 34.385447050020396" Properties=species:S:1:pos:R:3:initial_magmoms:R:1 pbc="T T T"
Si      -0.17218530       0.28514016       2.34443548       0.00000000
Si       0.42182955       2.31313832      -0.44518863       0.00000000
Si      -2.02619907      -0.77199939      -1.02905385       0.00000000
Si       2.00397951      -1.34236116       0.11656673       0.00000000
Si      -2.00036313      -1.09753875       2.59235469       0.00000000
Si       3.44745270       0.43141200      -0.44250657       0.00000000
Si       2.62516608       2.37393260       0.53197755       0.00000000
Si      -1.62966789      -0.33552513      -3.22363746       0.00000000
Si      -1.58151465      -3.05240391       1.25259377       0.00000000
Si      -3.69852558       0.70926727      -0.20318372       0.00000000
