10
Lattice="16.290000149 0.0 0.0 0.0 16.290000149 0.0 0.0 0.0 29.1751946751" Properties=species:S:1:pos:R:3:initial_magmoms:R:1 pbc="T T T"
Si      -1.41804451       1.40986693      -1.21835613       0.00000000
Si      -1.32905224      -1.38005623       1.37364110       0.00000000
Si       1.20001915      -1.46536696      -1.43614896       0.00000000
Si       1.30588786       1.44648685       1.37238657       0.00000000
H        3.23641578       1.71312158      -0.50767756       0.00000000
Si      -0.04494411       2.62278776      -2.66106951       0.00000000
Si       2.67146228      -2.67815747       0.01636728       0.00000000
Si       2.52833834      -0.13222593      -2.83708346       0.00000000
Si       2.73544941       0.07912053       2.70143047       0.00000000
Si      -2.91134883       0.13655907      -2.51723580       0.00000000
