10
Lattice="16.290000149 0.0 0.0 0.0 16.290000149 0.0 0.0 0.0 29.1751946751" Properties=species:S:1:pos:R:3:initial_magmoms:R:1 pbc="T T T"
Si       1.30795669       1.36124128       1.34842790       0.00000000
Si      -1.37586970       1.26671041      -1.41422088       0.00000000
Si       1.28922319      -1.44889777      -1.32794400       0.00000000
Si      -1.43044120      -1.38702835       1.28257949       0.00000000
Si      -2.18181746      -0.59567644      -2.59337226       0.00000000
Si      -0.54851688      -2.33535071      -2.50826734       0.00000000
Si       2.61645095       2.65157219      -0.12071529       0.00000000
Si       2.62700687      -0.02969667       2.68794861       0.00000000
Si      -0.10964799       2.69506649       2.64969993       0.00000000
Si       2.53920377      -2.81755101       0.08372406       0.00000000
