10
Lattice="16.290000149 0.0 0.0 0.0 16.290000149 0.0 0.0 0.0 29.1751946751" Properties=species:S:1:pos:R:3:initial_magmoms:R:1 pbc="T T T"
Si       0.34380045      -0.88404202      -2.13492405       0.00000000
Si      -1.82244377       1.45668439       0.16416882       0.00000000
Si       1.62152290       1.68715532       0.07591386       0.00000000
Si       0.22527441      -1.51272199       1.83751211       0.00000000
H       -0.90256375      -1.45269334       2.84513581       0.00000000
Si       1.06018579       2.72274320       2.08590972       0.00000000
Si       2.28605717      -0.81523306       2.73864635       0.00000000
Si       1.40041873       0.87835681      -3.31529407       0.00000000
Si      -3.65141982       0.16027731       0.79829168       0.00000000
H       -1.82830817       0.30788100       3.28536032       0.00000000
