10
Lattice="16.290000149 0.0 0.0 0.0 16.290000149 0.0 0.0 0.0 29.1751946751" Properties=species:S:1:pos:R:3:initial_magmoms:R:1 pbc="T T T"
Si      -1.50032530      -1.36080145       1.16228141       0.00000000
Si       1.39113343      -1.35523027      -1.31241696       0.00000000
Si       1.33841899       1.28713807       1.43194773       0.00000000
Si      -1.34298019       1.34548885      -1.38366278       0.00000000
H       -0.85384036      -2.19958985       2.24269721       0.00000000
Si      -0.00848709      -2.72618039      -2.62710958       0.00000000
Si       2.68967450       2.67154373       0.07702251       0.00000000
Si      -2.93294937      -0.13336623       2.44598997       0.00000000
Si       2.74419714      -2.66393630       0.11530037       0.00000000
Si       2.73124658      -0.00705357      -2.68528492       0.00000000
