10
Lattice="16.290000149 0.0 0.0 0.0 16.290000149 0.0 0.0 0.0 29.1751946751" Properties=species:S:1:pos:R:3:initial_magmoms:R:1 pbc="T T T"
Si       1.34552143       1.35808102       1.36297757       0.00000000
Si      -1.35332434       1.36769212      -1.35460429       0.00000000
Si      -1.36234900      -1.34438113       1.37076735       0.00000000
Si       1.37663533      -1.34957764      -1.35171594       0.00000000
Si      -0.05608647      -2.75402001      -2.58927227       0.00000000
Si       2.67796199      -2.69770547       0.06634439       0.00000000
Si      -0.02404404       2.72186354       2.69969746       0.00000000
Si       2.69211800      -0.00083079       2.73152760       0.00000000
Si      -2.67379175       0.02775816      -2.74968624       0.00000000
Si       2.69742854       2.73251720       0.01540450       0.00000000
