10
Lattice="16.290000149 0.0 0.0 0.0 16.290000149 0.0 0.0 0.0 29.1751946751" Properties=species:S:1:pos:R:3:initial_magmoms:R:1 pbc="T T T"
Si      -1.44242369       1.38740302      -1.22868415       0.00000000
Si      -1.29726350      -1.29098088       1.47391333       0.00000000
Si       1.36415275       1.39360951       1.31873047       0.00000000
Si       1.42438339      -1.30385487      -1.36153048       0.00000000
Si      -2.62121697      -2.62748629       0.13551586       0.00000000
Si      -0.11905666       2.71865441      -2.59032258       0.00000000
Si       0.07229823      -2.51608338      -2.84570764       0.00000000
Si       2.70354425      -2.67747329       0.02808404       0.00000000
Si       2.65703630       0.04131144       2.75216613       0.00000000
Si       0.01554468       2.72007164       2.72742557       0.00000000
