10
Lattice="16.290000149 0.0 0.0 0.0 16.290000149 0.0 0.0 0.0 29.1751946751" Properties=species:S:1:pos:R:3:initial_magmoms:R:1 pbc="T T T"
Si      -1.37157892       1.34216569      -1.35591717       0.00000000
Si      -1.33184109      -1.39696525       1.34214648       0.00000000
Si       1.29868768      -1.35881407      -1.41712673       0.00000000
Si       1.35599590       1.38232054       1.35084069       0.00000000
Si       2.77690746       0.01097946       2.60374025       0.00000000
Si      -2.73584037      -0.07771959       2.65561374       0.00000000
Si       2.60973947      -2.78519907      -0.12002675       0.00000000
Si      -0.01122381       2.69221574      -2.70929610       0.00000000
Si      -2.70948497       2.70596450       0.01718419       0.00000000
Si       0.03912858      -2.63534735       2.78614357       0.00000000
