10
Lattice="16.290000149 0.0 0.0 0.0 16.290000149 0.0 0.0 0.0 29.1751946751" Properties=species:S:1:pos:R:3:initial_magmoms:R:1 pbc="T T T"
Si       1.35539317      -1.36559071       1.33785773       0.00000000
Si      -1.35553978      -1.36853920      -1.33736175       0.00000000
Si       1.37487601       1.33579630      -1.36271499       0.00000000
Si      -1.37771047       1.34617303       1.35758016       0.00000000
Si       2.65015496       0.07035651       2.65085819       0.00000000
Si      -2.68446985      -0.00869886      -2.71168847       0.00000000
Si       0.02795364      -2.72335734      -2.67300216       0.00000000
Si      -2.70757721       2.70475904      -0.00743967       0.00000000
Si       0.03082068       2.71803539      -2.70629106       0.00000000
Si      -2.70334507      -2.72147258       0.03935734       0.00000000
