10
Lattice="16.290000149 0.0 0.0 0.0 16.290000149 0.0 0.0 0.0 29.1751946751" Properties=species:S:1:pos:R:3:initial_magmoms:R:1 pbc="T T T"
Si       1.34724166       1.32682051      -1.38246368       0.00000000
Si      -1.33217015      -1.35817876      -1.37905894       0.00000000
Si      -1.35460148       1.38482920       1.33386073       0.00000000
Si       1.36908655      -1.35008263       1.36216066       0.00000000
Si      -2.62831659      -2.67525785       0.08694208       0.00000000
Si       2.70713087       2.69764031      -0.01992666       0.00000000
Si      -2.69719071       0.03086955       2.71670660       0.00000000
Si      -0.04052952       2.66646125      -2.75278757       0.00000000
Si       0.00932114       2.71963181       2.70850837       0.00000000
Si       2.72825900       0.00607617       2.71501444       0.00000000
