10
Lattice="16.290000149 0.0 0.0 0.0 16.290000149 0.0 0.0 0.0 29.1751946751" Properties=species:S:1:pos:R:3:initial_magmoms:R:1 pbc="T T T"
Si       1.36741519       1.35819505       1.32951362       0.00000000
Si       1.37024965      -1.35738055      -1.33342310       0.00000000
Si      -1.34405533       1.38223909      -1.34357607       0.00000000
Si      -1.37487601      -1.33579630       1.36271499       0.00000000
Si      -0.06934653       2.69421941       2.61077147       0.00000000
Si      -0.00272043      -2.70505226      -2.67758267       0.00000000
Si      -2.69135237       0.01931994      -2.69438758       0.00000000
Si      -0.01948284      -2.70138701       2.70057272       0.00000000
Si       2.72086985       0.00731421      -2.68945697       0.00000000
Si       2.72113049       2.70958088      -0.03215106       0.00000000
