10
Lattice="16.290000149 0.0 0.0 0.0 16.290000149 0.0 0.0 0.0 29.1751946751" Properties=species:S:1:pos:R:3:initial_magmoms:R:1 pbc="T T T"
Si       1.37658646       1.34056927       1.33304382       0.00000000
Si       1.37785708      -1.36656811      -1.31230026       0.00000000
Si      -1.35371530      -1.35138583       1.36166469       0.00000000
Si      -1.35130438       1.37600002      -1.34208813       0.00000000
Si      -0.05631453       2.66408291       2.61529363       0.00000000
Si      -0.00026064      -2.70226667      -2.65730591       0.00000000
Si       2.73416249      -0.01179396      -2.67049309       0.00000000
Si      -2.71642268       0.02042766      -2.68913604       0.00000000
Si       0.01023012      -2.67636557       2.74264335       0.00000000
Si       2.72565911       2.69796611      -0.02004336       0.00000000
