10
Lattice="16.290000149 0.0 0.0 0.0 16.290000149 0.0 0.0 0.0 29.1751946751" Properties=species:S:1:pos:R:3:initial_magmoms:R:1 pbc="T T T"
Si       1.42491889      -1.35816247      -1.27247612       0.00000000
Si       1.35604477       1.34796493       1.35728841       0.00000000
Si      -1.32517522      -1.38702835       1.38144547       0.00000000
Si      -1.34063443       1.33564969      -1.42124043       0.00000000
Si       0.03741813      -2.70239699      -2.55099441       0.00000000
Si      -2.68659569       2.61900848       0.03661487       0.00000000
Si       2.69863400       2.70192458      -0.02555747       0.00000000
Si       2.70316262      -0.03122793       2.71116332       0.00000000
Si       0.01225008       2.68294673       2.74089284       0.00000000
Si      -2.71205696      -0.07045425      -2.73435468       0.00000000
