10
Lattice="16.290000149 0.0 0.0 0.0 16.290000149 0.0 0.0 0.0 29.1751946751" Properties=species:S:1:pos:R:3:initial_magmoms:R:1 pbc="T T T"
Si      -2.06721731       0.72186692      -0.85034022       0.00000000
Si      -0.78437980      -1.50119682       1.70785755       0.00000000
Si       1.04622526      -0.67214984      -2.07105954       0.00000000
Si       0.91512334       2.08403673       0.81474649       0.00000000
H       -1.39880602       2.29178311       1.71827309       0.00000000
Si      -1.31686732       1.30759668      -3.00522010       0.00000000
Si      -2.68464089       2.23954108       0.90378918       0.00000000
H        0.38850021      -3.59240930      -0.53740709       0.00000000
Si      -2.32539752      -2.81053816       0.51511724       0.00000000
Si      -3.35413709      -1.26435651      -0.96470699       0.00000000
