10
Lattice="16.290000149 0.0 0.0 0.0 16.290000149 0.0 0.0 0.0 29.1751946751" Properties=species:S:1:pos:R:3:initial_magmoms:R:1 pbc="T T T"
H       -1.13325947       0.97269220       0.28638371       0.00000000
H        1.51718382      -1.47549934      -0.62875462       0.00000000
Si       1.48147614       1.19894401      -1.38611350       0.00000000
Si       1.29177909       0.15560208       2.02192852       0.00000000
Si      -1.31770365      -1.70580737      -1.12861323       0.00000000
H       -2.30001933      -0.83302174       2.19435392       0.00000000
Si       2.12955751      -2.78157617      -0.18882186       0.00000000
Si       0.04717095       2.41188113      -2.76677124       0.00000000
Si      -2.60682519      -0.35870580      -2.62999792       0.00000000
Si       0.74757906       2.53312760       2.75976919       0.00000000
