10
Lattice="16.290000149 0.0 0.0 0.0 16.290000149 0.0 0.0 0.0 29.1751946751" Properties=species:S:1:pos:R:3:initial_magmoms:R:1 pbc="T T T"
Si      -0.51752027      -0.91898407      -2.09121960       0.00000000
Si       2.05477175       1.00038520       0.73489398       0.00000000
Si      -1.41651162       1.94623148       0.01327471       0.00000000
Si      -0.66482423      -1.75158227       1.51964837       0.00000000
H        1.45057564       1.56693511      -2.37255601       0.00000000
Si      -1.94382056      -0.33910893       2.84710514       0.00000000
H        2.85366594      -0.46535643      -1.91360102       0.00000000
Si       0.25480818       1.20021463      -3.26344975       0.00000000
Si       1.04785426       2.23821344       2.57969989       0.00000000
Si      -3.08434863       1.16066251       1.46237746       0.00000000
