10
Lattice="16.290000149 0.0 0.0 0.0 16.290000149 0.0 0.0 0.0 29.1751946751" Properties=species:S:1:pos:R:3:initial_magmoms:R:1 pbc="T T T"
Si      -2.23076891       0.50539725      -0.33420185       0.00000000
Si       0.89036254      -1.41946174       1.59369501       0.00000000
Si       0.56133712      -1.03558789      -2.00999586       0.00000000
Si       1.24333426       1.78714985      -0.84389251       0.00000000
H       -0.00355122      -1.49503105       2.82121215       0.00000000
Si       0.60580882       1.10905253      -2.99121601       0.00000000
Si       2.77733100      -0.07672590       1.98169592       0.00000000
Si       3.30038661       1.17718546       0.05088154       0.00000000
Si       1.17683848       1.46548751       3.04802011       0.00000000
Si      -1.06018579      -2.72274320      -2.08590972       0.00000000
