10
Lattice="16.290000149 0.0 0.0 0.0 16.290000149 0.0 0.0 0.0 29.1751946751" Properties=species:S:1:pos:R:3:initial_magmoms:R:1 pbc="T T T"
Si       1.43262406      -1.22743522      -1.28370857       0.00000000
Si      -1.22360707       1.53179758      -1.24184216       0.00000000
Si       1.48416562       1.01656117       1.46970043       0.00000000
Si      -1.12143619      -1.44088309       1.54934871       0.00000000
H        2.07910901      -2.06622362      -0.20329276       0.00000000
Si      -1.99567163       0.33992343       2.83416594       0.00000000
Si      -0.12461850       1.80436187       2.99500878       0.00000000
Si       2.46277109      -0.84225817       2.36537891       0.00000000
Si      -0.00659745      -2.55860516      -2.49386647       0.00000000
Si       0.69765184      -2.32712426       2.69829705       0.00000000
