10
Lattice="16.290000149 0.0 0.0 0.0 16.290000149 0.0 0.0 0.0 29.1751946751" Properties=species:S:1:pos:R:3:initial_magmoms:R:1 pbc="T T T"
Si       1.24225912      -1.38785914       1.37330559       0.00000000
Si      -1.36068742       1.34949619       1.33178929       0.00000000
Si      -1.29476179      -1.43594722      -1.31300046       0.00000000
Si       1.45608166       1.29865510      -1.30308089       0.00000000
Si       2.68148063      -0.05668920       2.58346349       0.00000000
Si      -2.65015496      -0.07035651      -2.65085819       0.00000000
Si       0.09213624       2.62363484      -2.68405956       0.00000000
Si       0.02524950       2.70254360       2.62532989       0.00000000
Si      -2.60302799      -2.78260244       0.10981543       0.00000000
Si       0.12961953      -2.79889733      -2.61158838       0.00000000
