10
Lattice="16.290000149 0.0 0.0 0.0 16.290000149 0.0 0.0 0.0 29.1751946751" Properties=species:S:1:pos:R:3:initial_magmoms:R:1 pbc="T T T"
Si      -1.35125551      -1.38440566       1.35492522       0.00000000
Si       1.38515500      -1.35062020      -1.35512944       0.00000000
Si      -1.33188670       1.31417947      -1.44344276       0.00000000
Si       1.40849857       1.36697536       1.31644313       0.00000000
Si      -2.68967450      -2.67154373      -0.07702251       0.00000000
Si       2.70057251      -0.04693149       2.67326474       0.00000000
H       -1.10837161       2.95283946       2.14140094       0.00000000
Si       0.07755669       2.43916688       2.93899241       0.00000000
Si       2.72831438       2.69148269      -0.12536581       0.00000000
Si       0.04157208      -2.67859730      -2.76230743       0.00000000
