10
Lattice="16.290000149 0.0 0.0 0.0 16.290000149 0.0 0.0 0.0 29.1751946751" Properties=species:S:1:pos:R:3:initial_magmoms:R:1 pbc="T T T"
Si       1.91798462      -1.05759568       0.78288717       0.00000000
Si      -1.25678980      -1.31722244      -1.47072156       0.00000000
Si       1.16084170       1.44142392      -1.50231830       0.00000000
Si      -0.97414201       0.40619441       2.15073700       0.00000000
H       -1.88045246       1.96957831       0.65305756       0.00000000
Si       0.04600296       2.55914599       2.54089688       0.00000000
Si      -2.60384249      -2.60794432      -0.10115040       0.00000000
Si       3.66406086      -0.73556030      -0.71064939       0.00000000
Si       2.68066613       0.12293737      -2.69890973       0.00000000
Si       2.60006321       2.77259386      -0.29216040       0.00000000
