10
Lattice="16.290000149 0.0 0.0 0.0 16.290000149 0.0 0.0 0.0 29.1751946751" Properties=species:S:1:pos:R:3:initial_magmoms:R:1 pbc="T T T"
Si      -0.56133712       1.03558789       2.00999586       0.00000000
Si      -1.62152290      -1.68715532      -0.07591386       0.00000000
Si       2.19548477      -0.72097912      -0.46656971       0.00000000
Si       0.04447170       2.14464042      -0.98122015       0.00000000
Si       0.68199715       2.82273774       1.16610336       0.00000000
Si       1.90627211       0.16101036      -2.70912105       0.00000000
Si       1.92466352      -2.75242359       0.72611225       0.00000000
Si      -3.44396667      -0.23047092       0.08825496       0.00000000
Si      -0.22110417      -0.80879851      -3.39120793       0.00000000
Si      -2.79210603       1.54098514       1.67579401       0.00000000
