10
Lattice="16.290000149 0.0 0.0 0.0 16.290000149 0.0 0.0 0.0 29.1751946751" Properties=species:S:1:pos:R:3:initial_magmoms:R:1 pbc="T T T"
Si      -1.35944938       1.35298225       1.35244532       0.00000000
Si      -1.36039420      -1.34345260      -1.36329850       0.00000000
Si       1.32439330      -1.36347301       1.39296967       0.00000000
Si       1.35602848       1.37686339      -1.35606305       0.00000000
Si       2.69462666      -2.70369368       0.02710376       0.00000000
Si       2.69767289       0.02008557       2.70319849       0.00000000
Si       0.01449810       2.71673219       2.68484729       0.00000000
Si       0.00211770      -2.70596776      -2.70888765       0.00000000
Si      -2.72574057      -2.69087019      -0.01438337       0.00000000
Si      -2.71446788       2.70356987      -0.01735924       0.00000000
