10
Lattice="16.290000149 0.0 0.0 0.0 16.290000149 0.0 0.0 0.0 29.1751946751" Properties=species:S:1:pos:R:3:initial_magmoms:R:1 pbc="T T T"
Si       1.31227208       1.33514568      -1.36735385       0.00000000
Si      -1.27435042      -1.46380312      -1.29914224       0.00000000
Si      -1.29971395       1.41298207       1.34226318       0.00000000
Si       1.23316930      -1.49170789       1.35819284       0.00000000
H       -1.92078650      -2.29008080      -0.22222746       0.00000000
Si      -2.58988196      -0.02340873       2.62471721       0.00000000
Si       2.54416082       2.69692518       0.07667241       0.00000000
Si      -0.15745914       2.62753630      -2.63866296       0.00000000
Si       2.69121554      -0.06063138      -2.66614599       0.00000000
Si       2.57327757      -2.79422373      -0.06602347       0.00000000
