10
Lattice="16.290000149 0.0 0.0 0.0 16.290000149 0.0 0.0 0.0 29.1751946751" Properties=species:S:1:pos:R:3:initial_magmoms:R:1 pbc="T T T"
Si      -1.35001747      -1.34384356      -1.31227108       0.00000000
Si       1.39585753      -1.28189269       1.36003087       0.00000000
Si       1.38414502       1.33560082      -1.33989999       0.00000000
Si      -1.18284949       1.45233496       1.41149592       0.00000000
Si       2.27367677       0.60751927       2.42968104       0.00000000
Si       0.67181590       2.38378088       2.51942394       0.00000000
Si      -2.66106926       0.08254143      -2.60937106       0.00000000
Si       0.08674425      -2.67986792      -2.59352893       0.00000000
Si       0.01985751      -2.60095916       2.71586052       0.00000000
Si      -2.72246627      -2.59717988       0.11929737       0.00000000
