10
Lattice="16.290000149 0.0 0.0 0.0 16.290000149 0.0 0.0 0.0 29.1751946751" Properties=species:S:1:pos:R:3:initial_magmoms:R:1 pbc="T T T"
Si      -0.47747619       2.02662263      -1.06594491       0.00000000
Si       1.59570325       0.81355519       1.55906405       0.00000000
Si       1.29862252      -1.50268735      -1.31673489       0.00000000
Si      -1.86437423      -0.90560998       1.27787353       0.00000000
H       -2.78405877      -0.73990810      -1.27326385       0.00000000
H        1.03987216       1.17853264      -2.76452475       0.00000000
H       -1.07553097       1.93166822      -2.46682106       0.00000000
Si      -2.19307385       2.46524717       0.46058880       0.00000000
Si       2.23155083      -2.55026468       0.51710115       0.00000000
Si       3.29608605      -0.78548752       1.57333072       0.00000000
