10
Lattice="16.290000149 0.0 0.0 0.0 16.290000149 0.0 0.0 0.0 29.1751946751" Properties=species:S:1:pos:R:3:initial_magmoms:R:1 pbc="T T T"
H       -0.85717981       0.91385272      -0.84873559       0.00000000
Si       1.06510537      -1.45073854      -1.47649825       0.00000000
Si      -1.37310040      -1.21292083       1.44271338       0.00000000
Si       1.90180865       1.25291278       0.63208059       0.00000000
Si       1.98272108       0.38156067      -2.64513985       0.00000000
H       -2.72135855       0.46825605      -2.10808287       0.00000000
Si       0.05952366       1.88656121      -2.94759909       0.00000000
Si       0.04494411      -2.62278776       2.66106951       0.00000000
Si       2.18328356       0.81484210       2.93826186       0.00000000
Si       2.57328245      -2.75501370      -0.17601395       0.00000000
