10
Lattice="16.290000149 0.0 0.0 0.0 16.290000149 0.0 0.0 0.0 29.1751946751" Properties=species:S:1:pos:R:3:initial_magmoms:R:1 pbc="T T T"
Si      -0.97860547       1.85881934      -0.89567848       0.00000000
Si      -1.76511926      -1.48486609       0.33291815       0.00000000
Si       0.37164006       0.65456479       2.22370416       0.00000000
Si       1.76130740      -0.97523344      -1.25432914       0.00000000
H       -0.38366208      -1.22396545      -2.56867166       0.00000000
Si       1.86810464      -1.20625822       2.56534569       0.00000000
Si       2.49922811      -2.29920320       0.53466462       0.00000000
Si      -2.46277109       0.84225817      -2.36537891       0.00000000
Si      -1.07470018      -3.53726928      -0.42671640       0.00000000
Si      -3.58420728      -0.59862493      -0.81603020       0.00000000
