10
Lattice="16.290000149 0.0 0.0 0.0 16.290000149 0.0 0.0 0.0 29.1751946751" Properties=species:S:1:pos:R:3:initial_magmoms:R:1 pbc="T T T"
Si       1.34190505       1.36269109       1.35305800       0.00000000
Si      -1.33766965       1.37432215      -1.35247450       0.00000000
Si       1.36501242      -1.35076681      -1.35119079       0.00000000
Si      -1.35451351      -1.34674318       1.37388909       0.00000000
Si      -2.69615792       0.01003464      -2.68537244       0.00000000
Si       2.67177179       0.00410508       2.71807784       0.00000000
Si      -0.00594585      -2.71977842      -2.67583215       0.00000000
Si       2.69394248      -2.71060715       0.02313593       0.00000000
Si      -2.68405445       2.72453510       0.01266203       0.00000000
Si       2.69294879       2.72741843      -0.01111575       0.00000000
