10
Lattice="16.290000149 0.0 0.0 0.0 16.290000149 0.0 0.0 0.0 29.1751946751" Properties=species:S:1:pos:R:3:initial_magmoms:R:1 pbc="T T T"
Si       1.34552143       1.33097446       1.39158677       0.00000000
Si       1.33020883      -1.43695720      -1.31823449       0.00000000
Si      -1.34337115      -1.41840289       1.35721839       0.00000000
Si      -1.42956154       1.36736632      -1.32904390       0.00000000
H        0.50096637       1.63400104      -3.20910803       0.00000000
Si      -2.76946293       2.52680708       0.22060240       0.00000000
Si       2.64779291       2.68514588      -0.04458845       0.00000000
Si      -2.73544941      -0.07912053      -2.70143047       0.00000000
Si      -0.06398712      -2.75727801      -2.68506319       0.00000000
Si       2.69589728      -0.05212800       2.75290135       0.00000000
