10
Lattice="16.290000149 0.0 0.0 0.0 16.290000149 0.0 0.0 0.0 29.1751946751" Properties=species:S:1:pos:R:3:initial_magmoms:R:1 pbc="T T T"
Si      -0.71630389      -0.08167806      -1.32636270       0.00000000
H       -2.11540313       0.75313558       0.29770369       0.00000000
H        1.15116544       1.62492751      -1.13080137       0.00000000
H        1.80278174       1.20330973      -1.08531724       0.00000000
Si      -1.51734835       0.84808999       1.69857983       0.00000000
Si       0.25875036      -2.68121999       1.44778986       0.00000000
Si       2.24272577      -2.07373331       0.26771159       0.00000000
Si       0.89248024      -0.86947876      -2.85167105       0.00000000
Si       0.38217969       2.34422876       2.01682286       0.00000000
Si      -1.03987216      -1.17853264       2.76452475       0.00000000
