10
Lattice="16.290000149 0.0 0.0 0.0 16.290000149 0.0 0.0 0.0 29.1751946751" Properties=species:S:1:pos:R:3:initial_magmoms:R:1 pbc="T T T"
Si      -1.36055710      -1.36181143       1.34415957       0.00000000
Si       1.35343837       1.35386191       1.36160634       0.00000000
Si       1.36865323      -1.37946979      -1.32312425       0.00000000
Si      -1.38502468       1.33802803      -1.34897348       0.00000000
Si      -0.02393001       2.70150104      -2.67877885       0.00000000
Si       2.71640639      -0.03984534       2.66620434       0.00000000
Si      -0.00420282      -2.70673013      -2.68718131       0.00000000
Si      -2.73452087       0.00325800       2.67708669       0.00000000
Si      -0.00925272      -2.73781146       2.68624770       0.00000000
Si       2.72735328       2.69682581       0.01928480       0.00000000
