10
Lattice="16.290000149 0.0 0.0 0.0 16.290000149 0.0 0.0 0.0 29.1751946751" Properties=species:S:1:pos:R:3:initial_magmoms:R:1 pbc="T T T"
Si      -1.36788760       1.35718507      -1.32709208       0.00000000
Si       1.34807896       1.36251190       1.34815657       0.00000000
Si      -1.37626066      -1.33004593       1.35498357       0.00000000
Si       1.37396377      -1.36506943      -1.33292712       0.00000000
Si       2.66895362      -0.07698654       2.62445464       0.00000000
Si       0.00086337       2.70058880      -2.66988042       0.00000000
Si      -2.70796817      -0.00592956      -2.69208274       0.00000000
Si       0.00884547      -2.72064179      -2.67997503       0.00000000
Si      -2.68617215       2.72098388       0.06281419       0.00000000
Si      -0.06520887      -2.75643093       2.65208355       0.00000000
