10
Lattice="16.290000149 0.0 0.0 0.0 16.290000149 0.0 0.0 0.0 29.1751946751" Properties=species:S:1:pos:R:3:initial_magmoms:R:1 pbc="T T T"
H        0.53986690       0.26005356      -1.38415876       0.00000000
Si       1.67984111      -0.93799450       1.31478015       0.00000000
Si      -0.84890449       1.87243778       1.11840191       0.00000000
Si      -1.79898617      -1.59350410      -0.12075613       0.00000000
H        1.82488727       2.01649025      -0.93713643       0.00000000
H       -1.06005547       1.09665910      -2.55889797       0.00000000
H       -0.13431105      -0.66391525      -2.99912249       0.00000000
Si      -2.16720533       0.51047973       2.60333180       0.00000000
Si       2.65756691      -2.38153286      -0.20270925       0.00000000
Si       0.41550903      -2.41471559       2.64242656       0.00000000
