10
Lattice="16.290000149 0.0 0.0 0.0 16.290000149 0.0 0.0 0.0 29.1751946751" Properties=species:S:1:pos:R:3:initial_magmoms:R:1 pbc="T T T"
Si       1.33444423       1.36382976      -1.36992127       0.00000000
Si      -1.36215352      -1.34246054      -1.37791527       0.00000000
Si      -1.42438132       1.36295010       1.29858792       0.00000000
Si       1.40212918      -1.33993559       1.36041015       0.00000000
Si       0.05859513      -2.71868862       2.67308969       0.00000000
Si       2.70510113      -2.68710231      -0.07156675       0.00000000
Si       2.69557148       2.70948152      -0.00227567       0.00000000
Si      -0.12961953       2.79889733       2.61158838       0.00000000
Si      -2.72572427      -2.69221737      -0.02794984       0.00000000
Si       2.63246402       0.09255164       2.78830253       0.00000000
