10
Lattice="16.290000149 0.0 0.0 0.0 16.290000149 0.0 0.0 0.0 29.1751946751" Properties=species:S:1:pos:R:3:initial_magmoms:R:1 pbc="T T T"
Si       0.73792072      -1.32396976       1.78899376       0.00000000
Si      -1.76130740       0.97523344       1.25432914       0.00000000
Si       1.38994426       1.82402390      -0.75336188       0.00000000
Si       0.10658547      -1.73167589      -1.80614878       0.00000000
H       -2.14496948      -0.24873201      -1.31434252       0.00000000
Si       2.88041412       0.55882846      -2.03803322       0.00000000
Si       2.73380411      -2.21278964       0.81492154       0.00000000
Si      -0.77895523      -3.17200023       1.72238679       0.00000000
Si      -2.79145443       0.59005639      -2.39475833       0.00000000
Si       1.54135981      -3.35850558      -0.87811501       0.00000000
