10
Lattice="16.290000149 0.0 0.0 0.0 16.290000149 0.0 0.0 0.0 29.1751946751" Properties=species:S:1:pos:R:3:initial_magmoms:R:1 pbc="T T T"
Si      -1.32986674       1.35858601      -1.36501983       0.00000000
Si       1.31079115       1.43050636       1.32204477       0.00000000
Si      -1.34231882      -1.36780615       1.36344437       0.00000000
Si       1.37771047      -1.34617303      -1.35758016       0.00000000
Si       2.66717801       0.07367967       2.62506732       0.00000000
Si      -2.65000835       2.69553890       0.04186640       0.00000000
Si       2.68323995       2.68384268      -0.10952368       0.00000000
Si      -2.67177179      -0.00410508      -2.71807784       0.00000000
Si      -2.61350898      -0.00623907       2.78655202       0.00000000
Si       0.02217069      -2.71471223      -2.69494191       0.00000000
