10
Lattice="16.290000149 0.0 0.0 0.0 16.290000149 0.0 0.0 0.0 29.1751946751" Properties=species:S:1:pos:R:3:initial_magmoms:R:1 pbc="T T T"
Si      -0.72910783       2.18707424       0.41924755       0.00000000
Si       1.91454743       0.51689474       1.26906262       0.00000000
Si      -1.61846038      -1.48526194       0.94828135       0.00000000
Si       0.74635894       0.36426232      -2.25022441       0.00000000
H        1.43014798      -2.15065958      -1.21768510       0.00000000
H        1.80169031       1.92939902       1.82158245       0.00000000
Si       1.20814786       3.22269471      -0.47780216       0.00000000
Si       2.56194461       1.69423658      -1.63909161       0.00000000
H       -0.43403076      -2.59625624      -2.47703238       0.00000000
Si      -0.41282118      -2.89969007       2.40619763       0.00000000
