10
Lattice="16.290000149 0.0 0.0 0.0 16.290000149 0.0 0.0 0.0 29.1751946751" Properties=species:S:1:pos:R:3:initial_magmoms:R:1 pbc="T T T"
Si       1.28749156       1.41040450       1.31898138       0.00000000
Si      -1.32357880       1.37407780      -1.33318970       0.00000000
Si       1.40399927      -1.31924566      -1.31346726       0.00000000
Si      -1.31981581      -1.32450733       1.44180895       0.00000000
Si      -2.56013642       2.74082511       0.08586260       0.00000000
Si       0.01233153      -2.69578325      -2.62425041       0.00000000
Si       2.77496895      -2.55762776       0.13052982       0.00000000
Si      -2.71091666       0.01394424      -2.66328682       0.00000000
Si       2.73584037       0.07771959      -2.65561374       0.00000000
Si       2.70632288       0.18709065       2.69406665       0.00000000
