10
Lattice="16.290000149 0.0 0.0 0.0 16.290000149 0.0 0.0 0.0 29.1751946751" Properties=species:S:1:pos:R:3:initial_magmoms:R:1 pbc="T T T"
Si       0.97860547      -1.85881934       0.89567848       0.00000000
Si      -1.48416562      -1.01656117      -1.46970043       0.00000000
Si      -1.60878412       0.78780070       1.52530835       0.00000000
Si       1.66174292       1.52287066      -0.73267666       0.00000000
H        0.91030150       2.07278849       1.76635381       0.00000000
H        0.25868520       2.49440627       1.72086968       0.00000000
H       -0.89248024       0.86947876       2.85167105       0.00000000
Si      -1.95038543       2.73675261       0.15182771       0.00000000
Si       0.17451477       3.32258988      -0.84952332       0.00000000
Si      -0.05154156      -2.24399639      -2.75340900       0.00000000
