10
Lattice="16.290000149 0.0 0.0 0.0 16.290000149 0.0 0.0 0.0 29.1751946751" Properties=species:S:1:pos:R:3:initial_magmoms:R:1 pbc="T T T"
Si       1.32831919       1.33314103      -1.40093450       0.00000000
Si      -1.20001915       1.46536696       1.43614896       0.00000000
Si       1.47144313      -1.21279051       1.45251624       0.00000000
Si      -1.56638125      -1.11695644      -1.46955456       0.00000000
H        1.83075167      -3.02181132      -0.79158138       0.00000000
Si      -0.17985789       2.63741618      -2.70141880       0.00000000
Si      -2.52907139       0.08531073       2.80979006       0.00000000
Si       2.93127150       2.44912007      -0.06053853       0.00000000
H        2.03639663       3.17848854       0.92847140       0.00000000
Si      -2.61806366       2.87523390       0.21779283       0.00000000
