10
Lattice="16.290000149 0.0 0.0 0.0 16.290000149 0.0 0.0 0.0 29.1751946751" Properties=species:S:1:pos:R:3:initial_magmoms:R:1 pbc="T T T"
Si      -1.32395347      -1.33650541      -1.33839747       0.00000000
Si       1.31781084      -1.43510177       1.27615219       0.00000000
Si      -1.44068761       1.33149411       1.28505062       0.00000000
Si       1.29726350       1.29098088      -1.47391333       0.00000000
Si       2.63167396      -0.05178591       2.64125955       0.00000000
Si      -0.07157826       2.68006178       2.62273330       0.00000000
Si      -2.74079253       0.00090247      -2.59832242       0.00000000
Si       2.66141624       2.68459040      -0.15518286       0.00000000
Si      -0.14516019       2.67838391      -2.70259748       0.00000000
Si      -0.07977213      -2.76964374       2.61231776       0.00000000
