10
Lattice="16.290000149 0.0 0.0 0.0 16.290000149 0.0 0.0 0.0 29.1751946751" Properties=species:S:1:pos:R:3:initial_magmoms:R:1 pbc="T T T"
Si       2.30057156       0.06722883      -0.45268232       0.00000000
Si      -0.86107312       2.07704018      -0.79694962       0.00000000
Si      -0.14107140       0.41334246       2.35986480       0.00000000
Si      -0.91512334      -2.08403673      -0.81474649       0.00000000
H       -2.31392936       0.20774637       0.90352660       0.00000000
H       -1.01511136       2.87269266       0.47847319       0.00000000
Si      -3.59976423       0.15550434       0.08904269       0.00000000
Si      -2.98234065      -1.36216981      -1.66508671       0.00000000
Si       3.06756993       2.10991340       0.43500215       0.00000000
Si       2.06324255       0.02671560       3.16588790       0.00000000
