10
Lattice="16.290000149 0.0 0.0 0.0 16.290000149 0.0 0.0 0.0 29.1751946751" Properties=species:S:1:pos:R:3:initial_magmoms:R:1 pbc="T T T"
Si      -1.37251396       1.36029646       1.32044014       0.00000000
Si      -1.37394748      -1.36374994      -1.33240197       0.00000000
Si       1.35363385       1.37463166      -1.34287586       0.00000000
Si       1.36037791      -1.32455620       1.39171514       0.00000000
Si      -0.01308087       2.66822057       2.71057981       0.00000000
Si       2.68317479      -2.69664662       0.01835120       0.00000000
Si      -0.01449810      -2.71673219      -2.68484729       0.00000000
Si      -2.71384886       0.02798622       2.69333727       0.00000000
Si       2.70001865       0.02441871      -2.70801239       0.00000000
Si      -2.73023660       2.69397506      -0.05686245       0.00000000
