10
Lattice="16.290000149 0.0 0.0 0.0 16.290000149 0.0 0.0 0.0 29.1751946751" Properties=species:S:1:pos:R:3:initial_magmoms:R:1 pbc="T T T"
Si      -1.39113343       1.35523027       1.31241696       0.00000000
Si       1.34011315       1.34817670      -1.37286796       0.00000000
Si      -1.39962052      -1.37095012      -1.31469262       0.00000000
Si       1.35306370      -1.30870603       1.42771733       0.00000000
Si       2.58361031      -2.73957892       0.01041554       0.00000000
Si       2.68369607       2.67615380       0.03431003       0.00000000
Si      -2.89145874      -0.00557118       2.47469836       0.00000000
Si      -0.05271444       2.64236834       2.74436469       0.00000000
Si       2.66291003      -0.02391372      -2.74623190       0.00000000
Si      -2.73411362       2.70071912      -0.07124583       0.00000000
