10
Lattice="16.290000149 0.0 0.0 0.0 16.290000149 0.0 0.0 0.0 29.1751946751" Properties=species:S:1:pos:R:3:initial_magmoms:R:1 pbc="T T T"
Si       1.34008057       1.36311463       1.36499066       0.00000000
Si      -1.35100139       1.35962857      -1.35915562       0.00000000
Si      -1.35903562      -1.35224920       1.36210231       0.00000000
Si       1.36793647      -1.35392707      -1.35264955       0.00000000
Si      -2.68256854       2.70928766       0.03057560       0.00000000
Si       2.70796817       0.00592956       2.69208274       0.00000000
Si       2.70883154       2.70651836       0.02220232       0.00000000
Si       0.00876402      -2.71008587      -2.70550333       0.00000000
Si      -2.71039538      -2.70832655       0.00291752       0.00000000
Si       2.71681364      -2.71471223       0.01210771       0.00000000
