10
Lattice="16.290000149 0.0 0.0 0.0 16.290000149 0.0 0.0 0.0 29.1751946751" Properties=species:S:1:pos:R:3:initial_magmoms:R:1 pbc="T T T"
Si       1.37394748       1.35584929      -1.33467763       0.00000000
Si       1.37016820      -1.34154667       1.35308718       0.00000000
Si      -1.31996242       1.36897903       1.38331268       0.00000000
Si      -1.36598167      -1.36298431      -1.35194935       0.00000000
Si      -0.01876608      -2.70106121       2.66608764       0.00000000
Si      -0.00786807       2.71336505      -2.66054435       0.00000000
Si       2.72504009      -0.02197521      -2.68128792       0.00000000
Si      -2.68353317       0.01922220       2.73327811       0.00000000
Si      -2.70962975       2.71662305       0.04895598       0.00000000
Si       2.72111420      -2.71296920       0.00245072       0.00000000
