10
Lattice="16.290000149 0.0 0.0 0.0 16.290000149 0.0 0.0 0.0 29.1751946751" Properties=species:S:1:pos:R:3:initial_magmoms:R:1 pbc="T T T"
Si      -1.34648254      -1.01859742       1.63559059       0.00000000
Si       1.23054661      -1.43087289      -1.41730178       0.00000000
Si      -1.35306370       1.30870603      -1.42771733       0.00000000
Si       1.42734610       1.27190692       1.40370614       0.00000000
Si       0.08829180      -2.64542712       2.56362436       0.00000000
Si      -0.06312375       2.53710236       2.68837749       0.00000000
Si       2.72262266       2.62940150      -0.04320846       0.00000000
Si      -1.45306801       0.71307847       3.44173937       0.00000000
Si      -2.74419714       2.66393630      -0.11530037       0.00000000
Si       2.61438212      -0.09487296      -2.79900983       0.00000000
