10
Lattice="16.290000149 0.0 0.0 0.0 16.290000149 0.0 0.0 0.0 29.1751946751" Properties=species:S:1:pos:R:3:initial_magmoms:R:1 pbc="T T T"
Si       1.33885231       1.46611630      -1.23596715       0.00000000
Si       1.38777118      -1.33964074       1.37032388       0.00000000
Si      -1.36217633       1.45564183       1.28915849       0.00000000
Si      -1.21501051      -1.49213143      -1.39954284       0.00000000
Si      -2.67976041      -2.66646125       0.01551245       0.00000000
Si      -2.66444781       0.10147041       2.72533371       0.00000000
Si       2.78618624       0.27640872      -2.59636768       0.00000000
Si      -0.01704097       2.71063973      -2.69390035       0.00000000
Si       0.04052952      -2.66646125       2.75278757       0.00000000
Si       0.02960219       2.74750401       2.71777733       0.00000000
