10
Lattice="16.290000149 0.0 0.0 0.0 16.290000149 0.0 0.0 0.0 29.1751946751" Properties=species:S:1:pos:R:3:initial_magmoms:R:1 pbc="T T T"
Si       1.39922956       1.41728703       1.25876377       0.00000000
Si      -1.26179083       1.39057957      -1.43153928       0.00000000
Si       1.42928461      -1.28262574      -1.41275045       0.00000000
Si      -1.29746593      -1.58957821       1.27638559       0.00000000
Si      -2.52695369      -2.72767907      -0.34966471       0.00000000
Si       0.28233828      -2.67405239       2.59828449       0.00000000
Si      -2.58400127       2.78591583      -0.06634439       0.00000000
Si       2.86896078       0.12489641       2.53007288       0.00000000
Si      -2.56872125       0.07670961      -2.87871646       0.00000000
Si       2.86883010      -2.63119340      -0.12600767       0.00000000
