10
Lattice="16.290000149 0.0 0.0 0.0 16.290000149 0.0 0.0 0.0 29.1751946751" Properties=species:S:1:pos:R:3:initial_magmoms:R:1 pbc="T T T"
Si       1.34810340      -1.35976052       1.35512944       0.00000000
Si      -1.31386312      -1.38331586      -1.36510736       0.00000000
Si      -1.37817474       1.34876151       1.34200060       0.00000000
Si       1.32262584       1.38407823      -1.36300674       0.00000000
Si      -2.63167396       0.05178591      -2.64125955       0.00000000
Si       2.67231751      -0.01403384      -2.65511777       0.00000000
Si      -0.00721647       2.71777313       2.66664197       0.00000000
Si       2.66738164      -2.73061290      -0.03258869       0.00000000
Si       2.70520702       0.00311465       2.70532828       0.00000000
Si      -0.02749263      -2.70735078       2.70664116       0.00000000
