10
Lattice="16.290000149 0.0 0.0 0.0 16.290000149 0.0 0.0 0.0 29.1751946751" Properties=species:S:1:pos:R:3:initial_magmoms:R:1 pbc="T T T"
Si       1.31430979       1.35832537      -1.38377948       0.00000000
Si      -1.38595321       1.47960442       1.21170419       0.00000000
Si       1.59905899      -1.29984427       1.21362975       0.00000000
Si      -1.50247558      -1.34078104      -1.30363522       0.00000000
Si      -1.69217264      -2.38412297       2.10440679       0.00000000
Si      -2.23637267      -0.00659745       2.84224747       0.00000000
Si       2.37112355      -0.10797012      -2.86237835       0.00000000
Si       3.47011212       0.16459416       1.37447260       0.00000000
Si       3.12851082       2.11354607       0.00099196       0.00000000
H        2.07101288       0.99940780       2.99853898       0.00000000
