10
Lattice="16.290000149 0.0 0.0 0.0 16.290000149 0.0 0.0 0.0 29.1751946751" Properties=species:S:1:pos:R:3:initial_magmoms:R:1 pbc="T T T"
Si      -1.41517747      -1.32551731       1.23907052       0.00000000
Si       1.36098064      -1.37096641      -1.26235232       0.00000000
Si       1.22948776       1.13810086       1.62605030       0.00000000
Si      -1.39564576       1.44966340      -1.19390732       0.00000000
Si      -0.36916398       1.06515424       3.41985797       0.00000000
Si       2.69851997       0.07641639      -2.51863621       0.00000000
Si      -2.49654026       0.09534537       2.73777109       0.00000000
Si      -0.05885577      -2.68135031      -2.57651979       0.00000000
Si       2.52695369       2.72767907       0.34966471       0.00000000
Si      -0.11924280      -2.61913880       2.66486228       0.00000000
