10
Lattice="16.290000149 0.0 0.0 0.0 16.290000149 0.0 0.0 0.0 29.1751946751" Properties=species:S:1:pos:R:3:initial_magmoms:R:1 pbc="T T T"
Si      -0.44634600      -1.28974447       0.65644188       0.00000000
H        0.52287642      -1.54917901      -1.82079472       0.00000000
Si       1.55896930      -0.44484732      -2.03718714       0.00000000
Si       2.72611035      -0.60957181      -0.02074356       0.00000000
Si      -1.26429949      -0.31315896       2.60099778       0.00000000
Si      -2.32313321      -2.00072153      -0.61860165       0.00000000
Si       1.56076120      -2.65898414       0.57626845       0.00000000
Si      -2.77247658       0.99111619       1.30051348       0.00000000
Si      -1.85486087       2.82341541       0.13187188       0.00000000
Si       0.29724363       1.19848789      -3.18695239       0.00000000
