10
Lattice="16.290000149 0.0 0.0 0.0 16.290000149 0.0 0.0 0.0 29.1751946751" Properties=species:S:1:pos:R:3:initial_magmoms:R:1 pbc="T T T"
Si      -1.34810340       1.35976052      -1.35512944       0.00000000
Si       1.35710362       1.36287517       1.35019883       0.00000000
Si      -1.37559603      -1.34759026       1.35151172       0.00000000
Si       1.31927824      -1.37085238      -1.38771813       0.00000000
Si       0.01371618      -2.69633711       2.68198812       0.00000000
Si      -2.66196652      -0.02355534      -2.72023680       0.00000000
Si       2.70104492      -0.01102833      -2.69756767       0.00000000
Si      -0.02638980       2.71769330       2.68583925       0.00000000
Si      -2.69064838      -2.71396289      -0.04233321       0.00000000
Si       2.70075170      -2.71673219      -0.05070649       0.00000000
