10
Lattice="10.86 0.0 0.0 0.0 10.86 0.0 0.0 0.0 10.86" Properties=species:S:1:pos:R:3:initial_magmoms:R:1 pbc="T T T"
Si       1.16752602       1.46148450       1.16900298       0.00000000
Si       1.16752602      -1.25351550      -1.54599702       0.00000000
Si      -1.54747398      -1.25351550       1.16900298       0.00000000
Si       2.52502602       0.10398450       2.52650298       0.00000000
Si       2.52502602      -2.61101550      -0.18849702       0.00000000
Si      -0.18997398      -2.61101550       2.52650298       0.00000000
Si      -0.17783250      -2.61510972      -2.62261398       0.00000000
Si       2.52502602       2.81898450      -0.18849702       0.00000000
Si      -0.18997398       2.81898450       2.52650298       0.00000000
Si       2.52502602       0.10398450      -2.90349702       0.00000000
