10
Lattice="16.28999089631971 0.0 0.0 0.0 16.28999089631971 0.0 0.0 0.0 34.279985188174585" Properties=species:S:1:pos:R:3:initial_magmoms:R:1 pbc="T T T"
Si      -0.41591628       0.43504074      -2.26145189       0.00000000
Si      -1.58850306      -1.72761966       0.52119319       0.00000000
Si      -1.12013298       1.98462277       0.85233803       0.00000000
Si       1.96859763      -1.68788835      -0.38054233       0.00000000
Si       2.77544133       0.24602787      -1.81348079       0.00000000
Si       1.85298750       0.90004109       2.88020597       0.00000000
Si      -0.50624433      -2.25518760       2.89559769       0.00000000
Si      -0.61370946      -1.63966995      -3.27415178       0.00000000
Si       1.28655162       2.12489759      -2.81785064       0.00000000
Si      -3.43366226       1.27378745       1.16716559       0.00000000
