10
Lattice="16.28999089631971 0.0 0.0 0.0 16.28999089631971 0.0 0.0 0.0 34.279985188174585" Properties=species:S:1:pos:R:3:initial_magmoms:R:1 pbc="T T T"
Si      -1.35435060       1.35782037      -1.35837945       0.00000000
Si      -1.35604476      -1.35798164       1.35711109       0.00000000
Si       1.35930276       1.35702216       1.35656261       0.00000000
Si       1.35856971      -1.35592584      -1.36228737       0.00000000
Si      -2.71213839       2.71303434      -0.00003428       0.00000000
Si      -2.71329498      -0.00065160       2.71381082       0.00000000
Si      -2.71396287      -2.71445124       0.00034280       0.00000000
Si       0.00190593       2.71472850       2.71384510       0.00000000
Si       0.00192222      -2.71559247       2.71408506       0.00000000
Si       2.71539639       2.71505430      -0.00068560       0.00000000
