10
Lattice="16.28999089631971 0.0 0.0 0.0 16.28999089631971 0.0 0.0 0.0 34.279985188174585" Properties=species:S:1:pos:R:3:initial_magmoms:R:1 pbc="T T T"
Si       0.49658436       1.41931023       1.86428376       0.00000000
Si       0.17720262      -2.06296138       1.24645524       0.00000000
Si       2.22096231       0.19724584      -0.96868436       0.00000000
Si       0.80345538      -1.04154580      -2.48540316       0.00000000
Si       0.05698242      -2.84861179      -1.05376733       0.00000000
Si      -2.82564711       0.16604234      -1.12040766       0.00000000
Si      -1.68647112       1.20123600       2.60356633       0.00000000
Si      -1.76419071       1.85488854      -2.36888542       0.00000000
Si      -0.41531355       3.30513837      -1.08722462       0.00000000
Si      -3.48596226       0.48195268       1.05688681       0.00000000
