10
Lattice="16.28999089631971 0.0 0.0 0.0 16.28999089631971 0.0 0.0 0.0 34.279985188174585" Properties=species:S:1:pos:R:3:initial_magmoms:R:1 pbc="T T T"
Si       1.54735452      -1.70981373      -0.12015142       0.00000000
Si       0.45817254       1.34787533       1.85657076       0.00000000
Si       0.21747150       1.65710840      -1.65723253       0.00000000
Si      -2.00039571      -1.22405992      -0.32960224       0.00000000
Si      -1.74107520       1.90238692       2.36322922       0.00000000
Si       2.05161147      -1.54642503      -2.40669627       0.00000000
Si      -1.75987386      -2.91235782       1.29952068       0.00000000
Si      -1.53745020       3.15733594      -1.21913407       0.00000000
Si       0.43717473      -3.65259171       0.74716697       0.00000000
Si       2.15471088       2.89961185      -1.06089757       0.00000000
