10
Lattice="16.28999089631971 0.0 0.0 0.0 16.28999089631971 0.0 0.0 0.0 34.279985188174585" Properties=species:S:1:pos:R:3:initial_magmoms:R:1 pbc="T T T"
Si       1.35845568       1.35632169      -1.35652833       0.00000000
Si       1.35729909      -1.35736425       1.35731677       0.00000000
Si      -1.35728280       1.35786924       1.35779669       0.00000000
Si      -1.35646830      -1.35904212      -1.35759101       0.00000000
Si       0.00047241      -2.71358657      -2.71178830       0.00000000
Si      -2.71392540       0.00029322       2.71480494       0.00000000
Si       2.71454931      -2.71469429       0.00061704       0.00000000
Si      -2.71522860      -2.71449067       0.00010284       0.00000000
Si       2.71432125      -0.00073305       2.71559338       0.00000000
Si      -0.00035838       2.71516833       2.71507918       0.00000000
