10
Lattice="16.28999089631971 0.0 0.0 0.0 16.28999089631971 0.0 0.0 0.0 34.279985188174585" Properties=species:S:1:pos:R:3:initial_magmoms:R:1 pbc="T T T"
Si      -1.35845568      -1.35632169       1.35652833       0.00000000
Si       1.35778779      -1.35521397      -1.35834517       0.00000000
Si       1.35656604       1.35920502       1.35656261       0.00000000
Si      -1.35509994       1.35834165      -1.36352145       0.00000000
Si      -0.01381392      -2.70930393      -2.71404050       0.00000000
Si       2.71213839      -2.71303434       0.00003428       0.00000000
Si      -0.00115659      -2.71368594       2.71384510       0.00000000
Si       2.71404432       0.00169416       2.71387938       0.00000000
Si      -2.71573848       0.00154755       2.71432502       0.00000000
Si      -2.71492398      -2.71536381      -0.00106268       0.00000000
