10
Lattice="16.28999089631971 0.0 0.0 0.0 16.28999089631971 0.0 0.0 0.0 34.279985188174585" Properties=species:S:1:pos:R:3:initial_magmoms:R:1 pbc="T T T"
Si       1.35742941       1.34547255      -1.36259589       0.00000000
Si       1.42353423      -1.28790369       1.35800237       0.00000000
Si      -1.35529542      -1.37233476      -1.36091617       0.00000000
Si      -1.35645201       1.34803008       1.42457414       0.00000000
Si       0.02479338      -2.58963759       2.74198899       0.00000000
Si      -2.71103067       2.69557146       0.00154260       0.00000000
Si       2.71542897       2.70521514       0.00983836       0.00000000
Si       0.00197109       2.70063765      -2.72172951       0.00000000
Si      -2.71283886      -0.01418859      -2.72100962       0.00000000
Si       2.71634121      -0.01508454      -2.72080394       0.00000000
