10
Lattice="16.28999089631971 0.0 0.0 0.0 16.28999089631971 0.0 0.0 0.0 34.279985188174585" Properties=species:S:1:pos:R:3:initial_magmoms:R:1 pbc="T T T"
Si      -1.35894438      -1.34055297       1.38190239       0.00000000
Si      -1.24214508       1.27909080      -1.56137193       0.00000000
Si       1.35192339       1.37507148       1.38399347       0.00000000
Si       1.33807689      -1.45663551      -1.50085743       0.00000000
Si       0.32206959       2.53462626      -2.83760419       0.00000000
Si       2.71091664      -2.70151731       0.01143581       0.00000000
Si      -2.70563868       2.71650411      -0.00056562       0.00000000
Si      -2.73036690      -2.69195508      -0.01234080       0.00000000
Si      -0.00384444      -2.69889462       2.74542384       0.00000000
Si       2.70081684       2.74457178       0.03106111       0.00000000
