10
Lattice="16.28999089631971 0.0 0.0 0.0 16.28999089631971 0.0 0.0 0.0 34.279985188174585" Properties=species:S:1:pos:R:3:initial_magmoms:R:1 pbc="T T T"
Si      -1.41058368       1.77978024      -0.08755113       0.00000000
Si      -1.48362804      -1.68137235       0.73719149       0.00000000
Si       0.77921586      -1.01950965      -2.11226531       0.00000000
Si       1.17840231       0.56252628       2.12299495       0.00000000
Si       0.54727884      -3.00500001       0.50268198       0.00000000
Si       2.47529808      -2.23291917      -0.80198070       0.00000000
Si      -2.34730755       1.73639997      -2.22089864       0.00000000
Si       3.38302575       0.28541709       1.57262948       0.00000000
Si      -0.53074449       3.61414827       1.27089688       0.00000000
Si      -2.27673927      -1.34980569       2.93405985       0.00000000
