10
Lattice="16.28999089631971 0.0 0.0 0.0 16.28999089631971 0.0 0.0 0.0 34.279985188174585" Properties=species:S:1:pos:R:3:initial_magmoms:R:1 pbc="T T T"
Si       2.20462344      -0.27710919      -0.55036547       0.00000000
Si      -0.71369748       2.02911498       0.95757764       0.00000000
Si      -0.05523939      -1.56993246       1.77806955       0.00000000
Si      -1.17840231      -0.56252628      -2.12299495       0.00000000
Si      -2.16901350      -0.99554706       2.54498180       0.00000000
Si       0.26262738      -3.53610288       0.59866600       0.00000000
Si      -1.70914680       3.05162199      -0.85209807       0.00000000
Si      -2.58898599       1.21725396      -2.21054608       0.00000000
Si      -2.11409991       1.35940050       2.72224371       0.00000000
Si      -2.66203035      -2.24389863      -1.38580346       0.00000000
