10
Lattice="16.28999089631971 0.0 0.0 0.0 16.28999089631971 0.0 0.0 0.0 34.279985188174585" Properties=species:S:1:pos:R:3:initial_magmoms:R:1 pbc="T T T"
Si       0.40298202      -1.81219734       1.44699326       0.00000000
Si       2.29796514       0.68429403      -0.04922609       0.00000000
Si      -1.74351870       1.60637319       0.40584097       0.00000000
Si      -0.62195220      -1.23232221      -1.97476821       0.00000000
Si       2.87647191      -0.04992885      -2.25397885       0.00000000
Si       1.47189924      -1.86544935      -2.78991243       0.00000000
Si       0.95542479      -0.65493945       3.57636429       0.00000000
Si      -1.92057471       2.86181091      -1.62281541       0.00000000
Si      -1.54476441      -3.28321692      -1.31460389       0.00000000
Si      -1.23551505      -3.50498898       1.05407585       0.00000000
