10
Lattice="16.28999089631971 0.0 0.0 0.0 16.28999089631971 0.0 0.0 0.0 34.279985188174585" Properties=species:S:1:pos:R:3:initial_magmoms:R:1 pbc="T T T"
Si      -1.56421467      -1.25553546       1.27623226       0.00000000
Si      -1.84945257       1.05340914      -1.06319433       0.00000000
Si       1.08465336       1.58060241       1.43250452       0.00000000
Si       1.84715568      -1.08647784      -1.28532876       0.00000000
Si       3.35038059       0.84416409      -1.17391875       0.00000000
Si       2.40253065       2.80189629      -0.05114577       0.00000000
Si       2.37874725       0.20994552       2.86866530       0.00000000
Si      -0.32206959      -2.53462626       2.83760419       0.00000000
Si      -2.91625209      -2.52418437      -0.35733477       0.00000000
Si      -3.64312818      -0.45032076      -1.51599891       0.00000000
