10
Lattice="16.28999089631971 0.0 0.0 0.0 16.28999089631971 0.0 0.0 0.0 34.279985188174585" Properties=species:S:1:pos:R:3:initial_magmoms:R:1 pbc="T T T"
Si      -0.40298202       1.81219734      -1.44699326       0.00000000
Si      -1.63849707      -1.69279164      -0.39291741       0.00000000
Si       1.80268398      -1.40326947      -0.75323454       0.00000000
Si       0.55244277       1.15725789       2.12937103       0.00000000
Si       1.89498312       2.49649137      -1.49621935       0.00000000
Si      -1.02493422       0.57987513      -3.42176147       0.00000000
Si      -1.94774643      -1.47101958      -2.76159715       0.00000000
Si       1.56144537      -3.29802453       0.62790684       0.00000000
Si       1.40458896      -2.06684262      -2.98002934       0.00000000
Si      -0.55389258      -3.86794647      -0.23872595       0.00000000
