10
Lattice="16.28999089631971 0.0 0.0 0.0 16.28999089631971 0.0 0.0 0.0 34.279985188174585" Properties=species:S:1:pos:R:3:initial_magmoms:R:1 pbc="T T T"
Si       1.89599310       0.79974126      -1.05188193       0.00000000
Si      -0.06239070       1.14346256       2.05422926       0.00000000
Si       0.05628195      -2.38417182       0.26460735       0.00000000
Si      -1.38657222       1.12854906      -1.68441657       0.00000000
Si      -1.09908630      -2.70415629      -1.70505314       0.00000000
Si       2.13835572      -0.71654823      -2.81195448       0.00000000
Si       1.51006671       3.08671784      -1.37277705       0.00000000
Si      -3.53465307       0.71680887      -0.86553583       0.00000000
Si       0.17813115      -0.54483534       3.68335219       0.00000000
Si      -3.13874091      -1.62065952      -1.20470219       0.00000000
