10
Lattice="16.28999089631971 0.0 0.0 0.0 16.28999089631971 0.0 0.0 0.0 34.279985188174585" Properties=species:S:1:pos:R:3:initial_magmoms:R:1 pbc="T T T"
Si      -1.35856971       1.35592584       1.36228737       0.00000000
Si       1.35812988      -1.35972997       1.36060765       0.00000000
Si      -1.33985250      -1.37030198      -1.38397633       0.00000000
Si       1.36660068       1.33968471      -1.39419520       0.00000000
Si      -2.71292031       2.71374621       0.00390792       0.00000000
Si       2.71581993       2.71245930       0.00017140       0.00000000
Si       2.71417464      -2.71612522       0.00377080       0.00000000
Si       0.00073305       2.71294800       2.71884998       0.00000000
Si      -2.71337643      -2.71982305       0.00130264       0.00000000
Si      -2.71461447      -0.00205580       2.71939846       0.00000000
