10
Lattice="16.28999089631971 0.0 0.0 0.0 16.28999089631971 0.0 0.0 0.0 34.279985188174585" Properties=species:S:1:pos:R:3:initial_magmoms:R:1 pbc="T T T"
Si      -1.34952876      -1.35011333       1.34878105       0.00000000
Si       1.35721764      -1.35602660      -1.36153321       0.00000000
Si      -1.35523026       1.36017030      -1.36067621       0.00000000
Si       1.36225125       1.36568610       1.40040674       0.00000000
Si       0.02581965      -2.67681980       2.73314475       0.00000000
Si       2.71251306      -2.71208765       0.00013712       0.00000000
Si      -2.71208952       2.71390677      -0.00010284       0.00000000
Si      -2.71417464      -2.71252748       0.00041136       0.00000000
Si       0.00060273      -2.71350488      -2.71679318       0.00000000
Si      -2.71437012       0.00152343      -2.71662178       0.00000000
