10
Lattice="16.28999089631971 0.0 0.0 0.0 16.28999089631971 0.0 0.0 0.0 34.279985188174585" Properties=species:S:1:pos:R:3:initial_magmoms:R:1 pbc="T T T"
Si       1.57615524      -1.31846603       1.13285130       0.00000000
Si       1.25555175       1.55690535      -1.29026508       0.00000000
Si      -1.41750693      -1.23879164      -1.51671879       0.00000000
Si      -2.22096231      -0.19724584       0.96868436       0.00000000
Si       2.24689599       0.58536975       2.38835646       0.00000000
Si      -1.72437795       1.22206440       2.83296812       0.00000000
Si      -2.16397989      -3.04585763      -0.08508297       0.00000000
Si      -2.04375969      -2.26020722       2.21513960       0.00000000
Si       0.06380793      -2.45576867      -2.87362420       0.00000000
Si       2.71764441       2.65823967       0.28089036       0.00000000
