10
Lattice="16.28999089631971 0.0 0.0 0.0 16.28999089631971 0.0 0.0 0.0 34.279985188174585" Properties=species:S:1:pos:R:3:initial_magmoms:R:1 pbc="T T T"
Si      -1.25555175      -1.55690535       1.29026508       0.00000000
Si       1.46209266       1.10133432       1.57115544       0.00000000
Si      -1.19982366       1.40791212      -1.55771768       0.00000000
Si       1.52003619      -1.29687459      -1.53173343       0.00000000
Si       0.32060349      -2.87537138       2.42311639       0.00000000
Si       2.74159071       2.61418662       0.00164544       0.00000000
Si      -2.49308676       2.85272109      -0.21226179       0.00000000
Si      -2.67305868      -2.79569699      -0.22645371       0.00000000
Si      -2.55430458       0.05134608      -2.93224301       0.00000000
Si       0.99134424      -0.97153560       3.67862155       0.00000000
