10
Lattice="16.28999089631971 0.0 0.0 0.0 16.28999089631971 0.0 0.0 0.0 34.279985188174585" Properties=species:S:1:pos:R:3:initial_magmoms:R:1 pbc="T T T"
Si      -2.01285756      -0.37078713      -1.07131870       0.00000000
Si       0.82668492      -2.16705285       0.06208109       0.00000000
Si      -0.25464528       0.42884565       2.30707857       0.00000000
Si       1.37847609       1.60128745      -1.06151461       0.00000000
Si       1.87325226       1.28553838       2.62691101       0.00000000
Si       1.72936269       2.87356903       0.90389515       0.00000000
Si      -0.10634112      -2.91052845       2.06331346       0.00000000
Si      -1.50860061      -0.20739843      -3.35786355       0.00000000
Si      -0.04913064      -3.31658928      -1.82791267       0.00000000
Si       3.08529342      -2.20973265       0.66623188       0.00000000
