10
Lattice="16.28999089631971 0.0 0.0 0.0 16.28999089631971 0.0 0.0 0.0 34.279985188174585" Properties=species:S:1:pos:R:3:initial_magmoms:R:1 pbc="T T T"
Si      -1.41275025       1.28259315      -1.29246929       0.00000000
Si       1.34565174       1.35078309       1.34424238       0.00000000
Si      -1.36894644      -1.36430379       1.34455090       0.00000000
Si       1.34716671      -1.29564144      -1.43660642       0.00000000
Si      -0.44145900      -2.12336892      -2.78030859       0.00000000
Si      -2.33882046      -0.33288615      -2.71474399       0.00000000
Si      -0.01223379       2.57753412      -2.68743270       0.00000000
Si       2.70203859      -0.00332316       2.70224475       0.00000000
Si      -0.01146816       2.71135647       2.70334171       0.00000000
Si       2.70049104      -2.71482624      -0.03395092       0.00000000
