10
Lattice="16.28999089631971 0.0 0.0 0.0 16.28999089631971 0.0 0.0 0.0 34.279985188174585" Properties=species:S:1:pos:R:3:initial_magmoms:R:1 pbc="T T T"
Si      -1.42353423       1.28790369      -1.35800237       0.00000000
Si      -1.39874085      -1.30173390       1.38398662       0.00000000
Si       1.29326310      -1.44480897      -1.34545589       0.00000000
Si       1.42776963       1.19382894       1.58401044       0.00000000
Si      -0.29626623      -1.07341326       3.47575248       0.00000000
Si       2.62927116       2.67854841       0.10935321       0.00000000
Si      -0.06610482       2.63337624      -2.72059826       0.00000000
Si       2.49308676      -2.85272109       0.21226179       0.00000000
Si       2.65522113      -0.08358399      -2.71847290       0.00000000
Si      -2.77998624       2.63593377       0.06657177       0.00000000
