10
Lattice="16.28999089631971 0.0 0.0 0.0 16.28999089631971 0.0 0.0 0.0 34.279985188174585" Properties=species:S:1:pos:R:3:initial_magmoms:R:1 pbc="T T T"
Si       1.75242933      -0.77955795       1.36658373       0.00000000
Si      -0.94784994       1.95773220       1.12277298       0.00000000
Si      -1.50322491      -1.93064193      -0.11141001       0.00000000
Si       1.76391378      -1.62709407      -2.50031496       0.00000000
Si       0.35191287      -2.07449892       2.76154714       0.00000000
Si       2.86990704      -1.99083348      -0.28623804       0.00000000
Si      -2.26572723       0.73643832       2.60642327       0.00000000
Si      -3.35038059      -0.84416409       1.17391875       0.00000000
Si      -0.13988223       3.09347100      -2.13235339       0.00000000
Si      -0.16068456      -0.59140845      -3.73700039       0.00000000
