10
Lattice="16.28999089631971 0.0 0.0 0.0 16.28999089631971 0.0 0.0 0.0 34.279985188174585" Properties=species:S:1:pos:R:3:initial_magmoms:R:1 pbc="T T T"
Si       1.27296576      -1.31316948       1.56145420       0.00000000
Si      -1.41431409      -1.42526097      -1.34130942       0.00000000
Si       1.90426842       0.74953548      -1.43911027       0.00000000
Si      -1.41190317       1.39005059       1.54663495       0.00000000
Si       2.67002874       2.61288409       0.00324974       0.00000000
Si       2.61136845      -2.71743264       0.21330390       0.00000000
Si      -2.73219138      -2.64655485       0.14234086       0.00000000
Si       2.64212397       0.04422735       2.93438208       0.00000000
Si      -2.85638634       2.72175016       0.21338617       0.00000000
Si      -0.06856461      -2.67053373       2.93527336       0.00000000
