10
Lattice="16.28999089631971 0.0 0.0 0.0 16.28999089631971 0.0 0.0 0.0 34.279985188174585" Properties=species:S:1:pos:R:3:initial_magmoms:R:1 pbc="T T T"
Si       1.35704497       1.35707103      -1.35697397       0.00000000
Si      -1.35695767      -1.35798327      -1.35680257       0.00000000
Si      -1.35735860       1.35738054       1.35820805       0.00000000
Si       1.35774544      -1.35754344       1.35813949       0.00000000
Si      -2.71464772       2.71469592      -0.00013712       0.00000000
Si      -2.71502239       0.00029322       2.71435930       0.00000000
Si       2.71494679       2.71495656       0.00013712       0.00000000
Si      -2.71490836      -2.71507059       0.00010284       0.00000000
Si       2.71466986      -0.00024435       2.71542198       0.00000000
Si       0.00110283      -2.71511946       2.71514774       0.00000000
