10
Lattice="16.28999089631971 0.0 0.0 0.0 16.28999089631971 0.0 0.0 0.0 34.279985188174585" Properties=species:S:1:pos:R:3:initial_magmoms:R:1 pbc="T T T"
Si       1.75827744       0.92304027      -1.34638145       0.00000000
Si      -0.97252929      -1.76090013      -1.32015725       0.00000000
Si       1.06629453      -0.21750408       2.15480679       0.00000000
Si      -1.84485879       1.65965778       0.05779609       0.00000000
Si       0.38292903       2.24974674      -2.73074515       0.00000000
Si      -2.35209681      -0.47024343      -2.71466782       0.00000000
Si      -2.33930916      -2.99838627       0.13094962       0.00000000
Si      -1.72463859       2.44530819       2.35801866       0.00000000
Si      -1.09838583       3.46672377      -1.37383973       0.00000000
Si       3.37712877       2.15936982      -0.00500488       0.00000000
