10
Lattice="16.28999089631971 0.0 0.0 0.0 16.28999089631971 0.0 0.0 0.0 34.279985188174585" Properties=species:S:1:pos:R:3:initial_magmoms:R:1 pbc="T T T"
Si      -1.15272927       1.94398344       0.50292194       0.00000000
Si      -1.63615131      -1.14388380      -1.20552491       0.00000000
Si       1.73985345       0.51469884      -1.47877083       0.00000000
Si       0.30674070      -1.16520741       2.03287282       0.00000000
Si      -1.65698622       1.78059474       2.78946679       0.00000000
Si      -1.85018562      -2.02427685       2.50891924       0.00000000
Si      -2.94940224      -2.23270740       0.47474378       0.00000000
Si       3.46680522      -1.08216099      -1.10433034       0.00000000
Si      -3.00399003       0.40633776      -2.28616777       0.00000000
Si      -3.24635265       1.92262725      -0.52609523       0.00000000
