10
Lattice="16.28999089631971 0.0 0.0 0.0 16.28999089631971 0.0 0.0 0.0 34.279985188174585" Properties=species:S:1:pos:R:3:initial_magmoms:R:1 pbc="T T T"
Si       1.35664260       1.35757602      -1.35700825       0.00000000
Si       1.35612132      -1.35715248       1.35951069       0.00000000
Si      -1.35872807      -1.35764118      -1.35687113       0.00000000
Si      -1.36022041       1.36036161       1.36348717       0.00000000
Si       2.71356702       2.71487511       0.00027424       0.00000000
Si       2.71392540      -0.00029322      -2.71480494       0.00000000
Si       2.71312719      -2.71599586       0.00003428       0.00000000
Si      -0.00130320      -2.71478389      -2.71470210       0.00000000
Si      -0.00110283       2.71511946      -2.71514774       0.00000000
Si      -2.71601119       0.00004887      -2.71504490       0.00000000
