10
Lattice="16.28999089631971 0.0 0.0 0.0 16.28999089631971 0.0 0.0 0.0 34.279985188174585" Properties=species:S:1:pos:R:3:initial_magmoms:R:1 pbc="T T T"
Si      -1.54735452       1.70981373       0.12015142       0.00000000
Si       2.01285756       0.37078713       1.07131870       0.00000000
Si       0.50425695       0.16338870      -2.28654485       0.00000000
Si      -1.11017979      -1.94277798       0.86731839       0.00000000
Si       2.83954248      -1.79626572       1.13339978       0.00000000
Si      -3.54775023       0.48575381      -0.20945083       0.00000000
Si       1.96372692      -2.94580215      -0.75659398       0.00000000
Si      -1.58936643       0.14203251      -3.31556202       0.00000000
Si       1.65698622      -1.78059474      -2.78946679       0.00000000
Si      -3.30722838      -1.20254409       1.41967210       0.00000000
