10
Lattice="16.28999089631971 0.0 0.0 0.0 16.28999089631971 0.0 0.0 0.0 34.279985188174585" Properties=species:S:1:pos:R:3:initial_magmoms:R:1 pbc="T T T"
Si      -1.36244236      -1.34755767      -1.38007869       0.00000000
Si       1.35458355       1.36425492      -1.38319818       0.00000000
Si       1.29751968      -1.42366455       1.44013726       0.00000000
Si      -1.27165360       1.32276429       1.57156680       0.00000000
Si      -2.69415653       2.70177795      -0.00003428       0.00000000
Si       2.71020477      -2.70964602      -0.00627324       0.00000000
Si       2.71315326       2.71671588      -0.02073940       0.00000000
Si      -2.72466770      -2.72499120       0.02166496       0.00000000
Si      -0.00222196      -2.70791928      -2.74356587       0.00000000
Si       2.71134507       0.00695583      -2.74329163       0.00000000
