10
Lattice="16.28999089631971 0.0 0.0 0.0 16.28999089631971 0.0 0.0 0.0 34.279985188174585" Properties=species:S:1:pos:R:3:initial_magmoms:R:1 pbc="T T T"
Si       1.93430718      -1.01267437      -0.95936020       0.00000000
Si      -0.20022039       2.39107878       0.10462257       0.00000000
Si      -0.05890464      -0.87922994       2.27639797       0.00000000
Si      -1.66592943      -0.03787425      -1.86555212       0.00000000
Si      -3.67170084      -0.20113589      -0.45229038       0.00000000
Si       1.62841356      -3.38518322      -0.67593313       0.00000000
Si      -2.05048746      -0.03510495       3.29567962       0.00000000
Si       1.78872345       3.45243744      -0.47254986       0.00000000
Si      -0.51248340      -3.96318500       0.14267338       0.00000000
Si       3.97342489      -0.66749252       0.22799631       0.00000000
