10
Lattice="16.28999089631971 0.0 0.0 0.0 16.28999089631971 0.0 0.0 0.0 34.279985188174585" Properties=species:S:1:pos:R:3:initial_magmoms:R:1 pbc="T T T"
Si      -1.99158282       0.84412499       1.01928165       0.00000000
Si      -0.24597900      -2.41051016       0.11576357       0.00000000
Si       0.05890464       0.87922994      -2.27639797       0.00000000
Si       2.04121845       0.56700603       1.23908504       0.00000000
Si       3.62795634      -0.76101455       0.04171877       0.00000000
Si      -1.13702571       2.26246271       2.70952582       0.00000000
Si      -0.45357876      -3.08395505      -2.13372459       0.00000000
Si       1.99321182      -0.13344442      -3.23575817       0.00000000
Si      -1.98583245      -2.92520900       1.59453440       0.00000000
Si      -3.13856172      -0.98122556       2.09745635       0.00000000
