10
Lattice="16.28999089631971 0.0 0.0 0.0 16.28999089631971 0.0 0.0 0.0 34.279985188174585" Properties=species:S:1:pos:R:3:initial_magmoms:R:1 pbc="T T T"
Si      -1.81827351      -1.44179532      -0.15799654       0.00000000
Si       1.82446927      -0.48242835      -1.37596509       0.00000000
Si      -0.67147380       2.20341798      -0.39038069       0.00000000
Si       0.44031870      -0.39959370       2.33474254       0.00000000
Si      -2.39915862       2.02225689       1.26894292       0.00000000
Si       3.37112495       0.60362595       0.16317282       0.00000000
Si      -3.49679511      -0.03378546       0.82961039       0.00000000
Si       2.29971536      -1.83782151       2.11857283       0.00000000
Si      -1.20368439       2.12012721      -2.83447644       0.00000000
Si       1.75893134      -2.84057038      -1.76778554       0.00000000
