10
Lattice="16.28999089631971 0.0 0.0 0.0 16.28999089631971 0.0 0.0 0.0 34.279985188174585" Properties=species:S:1:pos:R:3:initial_magmoms:R:1 pbc="T T T"
Si      -1.50514713       1.42941492      -1.22033387       0.00000000
Si      -1.26322434      -1.23248511       1.68331417       0.00000000
Si       0.46561707      -1.04640444      -2.24643724       0.00000000
Si       1.48408416       1.50157962       1.39799141       0.00000000
Si       1.36635633       0.95342112      -3.09428459       0.00000000
Si      -3.05185005      -2.06021259       0.33961200       0.00000000
Si      -2.62262484       2.64069045       0.43248789       0.00000000
Si       2.58919776      -2.13812766      -2.20482132       0.00000000
Si      -2.61039105       0.06315633       3.11992059       0.00000000
Si       0.09009999      -2.65166991       3.08596967       0.00000000
