10
Lattice="16.28999089631971 0.0 0.0 0.0 16.28999089631971 0.0 0.0 0.0 34.279985188174585" Properties=species:S:1:pos:R:3:initial_magmoms:R:1 pbc="T T T"
Si       1.48506156       1.17959148      -1.51778147       0.00000000
Si       0.73112778      -2.06563716       1.19476099       0.00000000
Si      -1.40019066      -1.43940069      -1.58898104       0.00000000
Si       0.18539649       1.90169460       1.78636531       0.00000000
Si       2.91419955       2.55790467      -0.06746305       0.00000000
Si       2.61726543      -2.88407934      -0.18113554       0.00000000
Si      -2.60169219      -2.92412016      -0.11432381       0.00000000
Si      -2.04475338       2.83939587       1.81612035       0.00000000
Si      -0.00884547       2.56930767      -3.03542582       0.00000000
Si       2.71865439      -0.14941188      -3.03408890       0.00000000
