10
Lattice="16.28999089631971 0.0 0.0 0.0 16.28999089631971 0.0 0.0 0.0 34.279985188174585" Properties=species:S:1:pos:R:3:initial_magmoms:R:1 pbc="T T T"
Si      -0.66163464      -1.82128716       1.36537257       0.00000000
Si      -1.85021820       0.22950981      -1.46632719       0.00000000
Si       0.53734194       1.84111209       1.40681710       0.00000000
Si       1.67731614      -0.46304325      -1.62799169       0.00000000
Si       1.75257594       1.58767227      -2.77109271       0.00000000
Si       0.60605316      -1.99114299      -3.02315358       0.00000000
Si       0.41085009       0.83810421       3.56001273       0.00000000
Si       1.36120869      -3.02006826       1.63923553       0.00000000
Si      -1.66283433      -1.55212749      -2.91589145       0.00000000
Si      -1.26433206      -0.77331888       3.39029243       0.00000000
