10
Lattice="16.28999089631971 0.0 0.0 0.0 16.28999089631971 0.0 0.0 0.0 34.279985188174585" Properties=species:S:1:pos:R:3:initial_magmoms:R:1 pbc="T T T"
Si      -0.78402141       2.16088479      -0.18024426       0.00000000
Si       1.99264167       0.05242122       1.17097067       0.00000000
Si      -1.47652560      -1.41367878       1.14039290       0.00000000
Si       0.71591292      -0.92491362      -2.09536527       0.00000000
Si      -3.40112394      -0.37799316      -0.09629253       0.00000000
Si       3.28911390       0.81774171      -0.68950801       0.00000000
Si      -0.95926923      -2.53633671      -2.26508557       0.00000000
Si       0.14900463       2.90436039      -2.18147664       0.00000000
Si      -1.35964485      -3.41436771      -0.06602329       0.00000000
Si       2.50097112      -2.25341199       1.48051911       0.00000000
