10
Lattice="16.28999089631971 0.0 0.0 0.0 16.28999089631971 0.0 0.0 0.0 34.279985188174585" Properties=species:S:1:pos:R:3:initial_magmoms:R:1 pbc="T T T"
Si       2.28265254      -0.28180071       0.20166927       0.00000000
Si      -1.67518215      -1.61142309      -0.16972030       0.00000000
Si       0.12649185       1.00300788      -2.15319563       0.00000000
Si      -0.71591292       0.92491362       2.09536527       0.00000000
Si       2.57320098       1.74265533       1.40585726       0.00000000
Si      -3.53853009      -0.18730242      -0.20568003       0.00000000
Si      -1.07248473      -2.65939137      -2.19464016       0.00000000
Si      -1.44272385       2.67973758      -1.97610513       0.00000000
Si       1.27672875       0.97733484       3.26633593       0.00000000
Si      -0.41085009      -0.83810421      -3.56001273       0.00000000
