10
Lattice="16.28999089631971 0.0 0.0 0.0 16.28999089631971 0.0 0.0 0.0 34.279985188174585" Properties=species:S:1:pos:R:3:initial_magmoms:R:1 pbc="T T T"
Si       0.37484919       2.14787627       0.96429652       0.00000000
Si       2.22000839      -0.85353084       0.31832412       0.00000000
Si      -0.96943419      -2.03476761       0.96638760       0.00000000
Si      -0.60194808       1.05625989      -2.13975787       0.00000000
Si       0.77195608       1.25825589       3.06106457       0.00000000
Si       2.02144306      -2.16415908      -1.97415117       0.00000000
Si      -2.42585793      -1.04984163       2.68960914       0.00000000
Si       1.30823265       2.28859743      -2.81027476       0.00000000
Si      -1.38044718      -3.47993496      -0.99957065       0.00000000
Si       3.80851145       0.87408882      -0.20286907       0.00000000
