10
Lattice="16.28999089631971 0.0 0.0 0.0 16.28999089631971 0.0 0.0 0.0 34.279985188174585" Properties=species:S:1:pos:R:3:initial_magmoms:R:1 pbc="T T T"
Si       0.40220010      -2.26435887      -0.46216302       0.00000000
Si       1.16201457       1.07600337      -1.74642910       0.00000000
Si       0.49731741       0.60545043       2.23310232       0.00000000
Si      -2.18481480       0.67940703      -0.83972299       0.00000000
Si      -0.20486304      -2.12483502      -2.73924659       0.00000000
Si      -0.12411351       0.15921846      -3.48034600       0.00000000
Si      -1.38745188      -0.49661694       3.18502376       0.00000000
Si       0.73801845       2.90440926       1.93853425       0.00000000
Si      -3.09196906       2.02281075       0.81185334       0.00000000
Si      -1.98791757       1.51847235      -3.01708602       0.00000000
