10
Lattice="16.28999089631971 0.0 0.0 0.0 16.28999089631971 0.0 0.0 0.0 34.279985188174585" Properties=species:S:1:pos:R:3:initial_magmoms:R:1 pbc="T T T"
Si      -1.35233874      -1.35265644       1.35941471       0.00000000
Si       1.36063763       1.36482507       1.36147151       0.00000000
Si       1.34374816      -1.35480672      -1.39065750       0.00000000
Si      -1.44258534       1.31546637      -1.33337219       0.00000000
Si       0.20525146       2.51457327      -2.44640348       0.00000000
Si      -2.69603568      -2.72365542      -0.02495242       0.00000000
Si       0.00152662      -2.70870120       2.71851404       0.00000000
Si       2.72290517       2.70565346       0.01956360       0.00000000
Si      -2.71162521       0.00619020       2.71854832       0.00000000
Si       2.71635659       0.00693954       2.71954244       0.00000000
