10
Lattice="16.28999089631971 0.0 0.0 0.0 16.28999089631971 0.0 0.0 0.0 34.279985188174585" Properties=species:S:1:pos:R:3:initial_magmoms:R:1 pbc="T T T"
Si       1.35540785      -1.35262386      -1.35868797       0.00000000
Si      -1.35118283      -1.36010097       1.36691517       0.00000000
Si      -1.36059845       1.36059034      -1.35789953       0.00000000
Si       1.36344534       1.36191635       1.38552922       0.00000000
Si      -2.46877457       0.10708527       2.84095536       0.00000000
Si      -0.00153430      -2.71091664      -2.71555910       0.00000000
Si       2.71309790       0.00407148      -2.71607330       0.00000000
Si      -2.71988492      -2.70956457       0.00143976       0.00000000
Si       2.71607897      -2.71381626       0.00263956       0.00000000
Si      -2.71675724       0.00414153      -2.71521630       0.00000000
