10
Lattice="16.28999089631971 0.0 0.0 0.0 16.28999089631971 0.0 0.0 0.0 34.279985188174585" Properties=species:S:1:pos:R:3:initial_magmoms:R:1 pbc="T T T"
Si       1.67418194       0.92553264      -1.46643003       0.00000000
Si      -1.07001209      -1.68713901      -1.38264970       0.00000000
Si       0.79836638      -1.86598692       1.34189077       0.00000000
Si      -1.83571751       1.69508594       0.39120341       0.00000000
Si       0.28432566       2.34011456      -2.82395248       0.00000000
Si      -2.43030251      -0.38190276      -2.84256652       0.00000000
Si      -2.21872799      -3.11813406       0.14257054       0.00000000
Si      -1.07481694       3.50713016      -1.17295891       0.00000000
Si       2.58018287      -2.86161543      -0.10633657       0.00000000
Si       3.31852712       2.05517313      -0.13749710       0.00000000
