10
Lattice="16.28999089631971 0.0 0.0 0.0 16.28999089631971 0.0 0.0 0.0 34.51877397758722" Properties=species:S:1:pos:R:3:initial_magmoms:R:1 pbc="T T T"
Si       0.15299568      -1.87470207      -1.44806338       0.00000000
Si      -0.22481829      -0.65647071       2.29156461       0.00000000
Si       2.23972839       0.93695193      -0.04591000       0.00000000
Si      -2.19612006       1.01118546      -0.52630804       0.00000000
Si      -2.43076122      -1.49921757       2.50050687       0.00000000
Si      -1.64126800      -3.36756654      -0.85706712       0.00000000
Si      -0.25979292       1.34340372       3.63627872       0.00000000
Si       2.83128345       1.63558116       2.11489743       0.00000000
Si       1.52940294      -2.15953272       2.89988930       0.00000000
Si      -2.68401077       2.77310927       0.97349901       0.00000000
