10
Lattice="16.28999089631971 0.0 0.0 0.0 16.28999089631971 0.0 0.0 0.0 34.51877397758722" Properties=species:S:1:pos:R:3:initial_magmoms:R:1 pbc="T T T"
Si       1.71030339      -1.32625035       0.87895203       0.00000000
Si       0.80746272       0.95674428      -2.01872807       0.00000000
Si      -0.89062317       1.56551787       1.55928293       0.00000000
Si      -2.32325374      -0.55687365      -0.06948633       0.00000000
Si      -0.62797950      -0.49423860       3.32647255       0.00000000
Si      -1.37671677       1.38851073      -2.93005873       0.00000000
Si      -2.61748534      -0.53872659      -2.37689507       0.00000000
Si      -3.17962229       1.45762920       0.99113811       0.00000000
Si       1.36412460       3.18942792      -1.53891684       0.00000000
Si       1.87608672      -3.34116045      -0.33769735       0.00000000
