10
Lattice="16.28999089631971 0.0 0.0 0.0 16.28999089631971 0.0 0.0 0.0 34.51877397758722" Properties=species:S:1:pos:R:3:initial_magmoms:R:1 pbc="T T T"
Si       1.35928647       1.34814411       1.37779692       0.00000000
Si       1.48779828      -1.24289116      -1.34463817       0.00000000
Si      -1.35273789      -1.37204806       1.37700299       0.00000000
Si      -1.38271149       1.32452361      -1.53671799       0.00000000
Si       0.13222593      -2.40549869      -2.87845455       0.00000000
Si      -2.70892926       2.69672805      -0.00491202       0.00000000
Si       2.70697446       2.71518462       0.00890930       0.00000000
Si      -2.70927135      -2.72191958       0.00324822       0.00000000
Si       0.00544086       2.70242955       2.73759575       0.00000000
Si      -2.70928764      -0.01238040       2.73704344       0.00000000
