10
Lattice="16.28999089631971 0.0 0.0 0.0 16.28999089631971 0.0 0.0 0.0 34.51877397758722" Properties=species:S:1:pos:R:3:initial_magmoms:R:1 pbc="T T T"
Si       1.35505107      -1.35811658      -1.35603627       0.00000000
Si      -1.35837423      -1.35612920       1.35655406       0.00000000
Si       1.35638685       1.35858368       1.35676117       0.00000000
Si      -1.35884664       1.35659630      -1.36093794       0.00000000
Si       2.71485882      -2.71116398      -0.00113912       0.00000000
Si       2.71384884       0.00144723       2.71341878       0.00000000
Si      -0.00122175      -2.71344458       2.71386753       0.00000000
Si       2.71321353       2.71507479      -0.00214017       0.00000000
Si      -2.71518462       0.00045054       2.71390205       0.00000000
Si      -2.71619460      -2.71298846      -0.00100105       0.00000000
