10
Lattice="16.28999089631971 0.0 0.0 0.0 16.28999089631971 0.0 0.0 0.0 34.51877397758722" Properties=species:S:1:pos:R:3:initial_magmoms:R:1 pbc="T T T"
Si      -0.16094520      -1.33789185       1.96032227       0.00000000
Si      -1.81626984       0.71467488      -1.48472234       0.00000000
Si       0.61924806       2.31993709       0.75779107       0.00000000
Si       1.09942839      -1.73870730      -1.60205171       0.00000000
Si      -2.29255686      -1.98366003       1.16231681       0.00000000
Si       1.53068985       2.63088061      -1.56615217       0.00000000
Si      -0.19992717       1.78591831      -2.95232335       0.00000000
Si       1.78346178      -2.72695644       1.80626490       0.00000000
Si      -3.34497231       1.82019247      -0.02657947       0.00000000
Si      -1.74674412       3.26272084       1.12258568       0.00000000
