10
Lattice="16.28999089631971 0.0 0.0 0.0 16.28999089631971 0.0 0.0 0.0 34.51877397758722" Properties=species:S:1:pos:R:3:initial_magmoms:R:1 pbc="T T T"
Si       1.35557235       1.16260753       1.53381638       0.00000000
Si       1.74548979      -0.43449081      -1.54347332       0.00000000
Si      -1.61085294       1.10339663      -1.44809790       0.00000000
Si      -1.31984838      -1.50915840       1.43140258       0.00000000
Si      -2.56432293      -1.11018372      -1.70688529       0.00000000
Si       2.97901746       2.11094291       0.12181682       0.00000000
Si      -0.13222593       2.40549869       2.87845455       0.00000000
Si      -3.02280498       2.41655960       0.02996231       0.00000000
Si       2.58473430      -0.33917653       2.88508561       0.00000000
Si      -2.30167926      -3.16994019       0.06030433       0.00000000
