10
Lattice="16.28999089631971 0.0 0.0 0.0 16.28999089631971 0.0 0.0 0.0 34.51877397758722" Properties=species:S:1:pos:R:3:initial_magmoms:R:1 pbc="T T T"
Si      -1.23233850      -1.51029477      -1.40251725       0.00000000
Si       1.32887304      -1.32568020       1.55933816       0.00000000
Si      -1.37039625       1.38209247       1.53184739       0.00000000
Si       1.37015190       1.52146971      -1.58940200       0.00000000
Si       2.29667823      -0.46527498      -2.54201713       0.00000000
Si      -2.34981621       0.10076994      -2.75013094       0.00000000
Si       0.78467301      -2.49341256      -2.52279017       0.00000000
Si       2.69198766      -2.73285927       0.26911196       0.00000000
Si       2.80728828       2.65443921       0.14563134       0.00000000
Si      -2.76081291      -2.71634121       0.01371086       0.00000000
