10
Lattice="16.28999089631971 0.0 0.0 0.0 16.28999089631971 0.0 0.0 0.0 34.51877397758722" Properties=species:S:1:pos:R:3:initial_magmoms:R:1 pbc="T T T"
Si      -1.35716877      -1.35738054      -1.35655406       0.00000000
Si      -1.35731538       1.35744570       1.35772770       0.00000000
Si       1.35738054      -1.35729909       1.35800385       0.00000000
Si       1.35824391       1.35772263      -1.35734799       0.00000000
Si      -0.00332316      -2.71166598      -2.71635288       0.00000000
Si      -2.71445157       0.00107514       2.71479953       0.00000000
Si      -2.71508688      -2.71466334      -0.00006904       0.00000000
Si       2.71471221      -2.71518462       0.00041423       0.00000000
Si       2.71622718      -0.00004887      -2.71404012       0.00000000
Si      -2.71500543       2.71544526      -0.00010356       0.00000000
