10
Lattice="16.28999089631971 0.0 0.0 0.0 16.28999089631971 0.0 0.0 0.0 34.51877397758722" Properties=species:S:1:pos:R:3:initial_magmoms:R:1 pbc="T T T"
Si      -0.94196925      -1.87510932       1.21488893       0.00000000
Si       1.10545569       1.59992235       1.46028303       0.00000000
Si       1.39711185      -1.26625428      -1.59846176       0.00000000
Si      -1.30326516       1.41203349      -1.61023267       0.00000000
Si       2.70583416      -2.66883957      -0.19185545       0.00000000
Si      -2.67258627      -2.72007162      -0.17128225       0.00000000
Si      -2.62492173       2.80807020      -0.28705828       0.00000000
Si       1.00211193      -3.54802716       1.15365259       0.00000000
Si       2.63580345       2.84322402       0.02934097       0.00000000
Si       0.03414384      -2.63262690      -2.98138817       0.00000000
