10
Lattice="16.28999089631971 0.0 0.0 0.0 16.28999089631971 0.0 0.0 0.0 34.51877397758722" Properties=species:S:1:pos:R:3:initial_magmoms:R:1 pbc="T T T"
Si      -1.56427331       0.92479959       1.52120870       0.00000000
Si       1.00882341      -1.88432620       1.04270919       0.00000000
Si       1.85994333       1.42078122      -0.42219936       0.00000000
Si      -1.39963680      -0.48728277      -1.86025229       0.00000000
Si      -2.60380012       1.58687406      -2.06853869       0.00000000
Si      -2.97213982       2.26251810       0.18129270       0.00000000
Si      -0.61980192      -3.54686147       1.34371307       0.00000000
Si       2.36563380      -1.01255382       2.86115922       0.00000000
Si      -2.96311516      -0.88866837       2.29750184       0.00000000
Si       0.00912240      -0.85517613      -3.77349092       0.00000000
