10
Lattice="16.28999089631971 0.0 0.0 0.0 16.28999089631971 0.0 0.0 0.0 34.51877397758722" Properties=species:S:1:pos:R:3:initial_magmoms:R:1 pbc="T T T"
Si       0.13771566       0.51609978      -2.28483345       0.00000000
Si      -0.28636191       1.71406638       1.65724726       0.00000000
Si      -2.17766349      -0.90029943      -0.49865849       0.00000000
Si       1.86370632      -1.33462341       0.85340813       0.00000000
Si      -0.51297210      -1.60225182      -3.15211813       0.00000000
Si      -1.52116020      -2.91375972      -1.46974118       0.00000000
Si      -2.94998868      -1.39668831       1.60377765       0.00000000
Si      -1.66276917       1.99889703      -2.69070542       0.00000000
Si      -0.62305992       0.38744136       3.68557156       0.00000000
Si       2.28320640       1.23642729      -2.77727855       0.00000000
