10
Lattice="16.28999089631971 0.0 0.0 0.0 16.28999089631971 0.0 0.0 0.0 34.51877397758722" Properties=species:S:1:pos:R:3:initial_magmoms:R:1 pbc="T T T"
Si       0.58349151      -1.84619457      -1.39852891       0.00000000
Si      -0.77986746      -1.35938421       1.85987258       0.00000000
Si       1.80424782       1.63533681       0.20390251       0.00000000
Si      -1.86370632       1.33462341      -0.85340813       0.00000000
Si      -1.54046385      -2.83680576      -1.57657684       0.00000000
Si       3.44061090       0.68074281      -1.23829267       0.00000000
Si      -3.01097844      -0.56167920       2.25614833       0.00000000
Si      -2.15006823       3.04868979       0.80383914       0.00000000
Si       0.49060593      -0.60580881       3.74221690       0.00000000
Si      -1.72599066       1.85072319      -3.13824157       0.00000000
