10
Lattice="16.28999089631971 0.0 0.0 0.0 16.28999089631971 0.0 0.0 0.0 34.51877397758722" Properties=species:S:1:pos:R:3:initial_magmoms:R:1 pbc="T T T"
Si      -1.40786651       1.33771851      -1.33991600       0.00000000
Si       1.56427331      -0.92479959      -1.52120870       0.00000000
Si       1.15405853       0.92167191       1.86070103       0.00000000
Si      -1.39884185      -1.81346796       0.77629314       0.00000000
Si       0.16463651      -1.41208236      -3.38146099       0.00000000
Si       0.40533755      -0.44533602       3.66686237       0.00000000
Si      -3.60347573       0.69999759      -0.67080371       0.00000000
Si      -1.03952680       0.66207447      -3.58974739       0.00000000
Si      -0.44601043      -2.52243645       2.82115194       0.00000000
Si       2.57309672      -2.80912579      -0.47849951       0.00000000
