10
Lattice="16.28999089631971 0.0 0.0 0.0 16.28999089631971 0.0 0.0 0.0 34.51877397758722" Properties=species:S:1:pos:R:3:initial_magmoms:R:1 pbc="T T T"
Si       1.34654769       1.35738610       1.34788984       0.00000000
Si      -1.35032697      -1.34768799       1.36970572       0.00000000
Si      -1.35641943       1.35657974      -1.35565657       0.00000000
Si       1.35839052      -1.35619137      -1.35686473       0.00000000
Si       0.11282454      -2.58015681       2.75919070       0.00000000
Si       2.71124244      -2.71301805       0.00283054       0.00000000
Si      -2.71077003       2.71450763       0.00610983       0.00000000
Si      -2.71375110      -0.00052387      -2.71200351       0.00000000
Si       0.00021177      -2.71441899      -2.71203803       0.00000000
Si       0.00050499       2.71491488      -2.71193447       0.00000000
