10
Lattice="16.28999089631971 0.0 0.0 0.0 16.28999089631971 0.0 0.0 0.0 34.51877397758722" Properties=species:S:1:pos:R:3:initial_magmoms:R:1 pbc="T T T"
Si      -1.77065784       0.78258789       1.37222559       0.00000000
Si       2.08204119       1.14497523       0.01121861       0.00000000
Si      -0.83618199       0.68364243      -2.13774887       0.00000000
Si       0.46871217      -2.31679638       0.50017731       0.00000000
Si      -2.18372337       2.89167048       0.31512206       0.00000000
Si       1.44016632      -2.07575325       2.62660402       0.00000000
Si      -0.91603557      -1.38108249      -3.33441187       0.00000000
Si      -3.48560388      -0.90344340       1.10011394       0.00000000
Si       3.54502980       0.22742469      -1.64996380       0.00000000
Si       1.71950724       3.50552918      -0.40331758       0.00000000
