10
Lattice="16.28999089631971 0.0 0.0 0.0 16.28999089631971 0.0 0.0 0.0 34.51877397758722" Properties=species:S:1:pos:R:3:initial_magmoms:R:1 pbc="T T T"
Si       1.35721764       1.35676152       1.35738251       0.00000000
Si       1.35736425      -1.35733493      -1.35689924       0.00000000
Si      -1.35767376       1.35731538      -1.35693376       0.00000000
Si      -1.35808101      -1.35950313       1.35845259       0.00000000
Si      -0.00034209       2.71353933      -2.71334974       0.00000000
Si       2.71412577       0.00066789      -2.71428175       0.00000000
Si       0.00011403      -2.71460537      -2.71407464       0.00000000
Si       0.00148239      -2.71409972       2.71514472       0.00000000
Si      -2.71503801      -2.71450722      -0.00013808       0.00000000
Si      -2.71500543       2.71520091       0.00065586       0.00000000
