10
Lattice="16.28999089631971 0.0 0.0 0.0 16.28999089631971 0.0 0.0 0.0 34.51877397758722" Properties=species:S:1:pos:R:3:initial_magmoms:R:1 pbc="T T T"
Si      -1.21642806      -1.40224809       1.45888989       0.00000000
Si       1.50786756       1.31346270       1.31177425       0.00000000
Si       1.41195204      -1.31316296      -1.47806021       0.00000000
Si      -1.97149073       0.90003879      -1.11019343       0.00000000
Si      -2.47234633      -2.85061058      -0.02367989       0.00000000
Si      -2.53579004      -0.02467935       2.86514756       0.00000000
Si      -3.50136350      -1.02118752      -1.23159603       0.00000000
Si       3.02280498      -2.41655960      -0.02996231       0.00000000
Si       0.18164979       2.68566714       2.84358022       0.00000000
Si       3.03634197       2.51950914      -0.10445387       0.00000000
