10
Lattice="16.28999089631971 0.0 0.0 0.0 16.28999089631971 0.0 0.0 0.0 34.51877397758722" Properties=species:S:1:pos:R:3:initial_magmoms:R:1 pbc="T T T"
Si       1.35303111       1.34574948      -1.38358227       0.00000000
Si      -1.36296801      -1.36637262      -1.38292641       0.00000000
Si       1.30872231      -1.40258529       1.40660631       0.00000000
Si      -1.39711185       1.26625428       1.59846176       0.00000000
Si      -0.39499992      -2.28177288       2.75211435       0.00000000
Si      -2.33908110      -0.60885504       2.81335069       0.00000000
Si      -2.70037701       2.67828777      -0.01177091       0.00000000
Si       2.69606016       2.71920825      -0.00110460       0.00000000
Si       2.69428455      -2.73239012      -0.02271337       0.00000000
Si      -0.00109143       2.70317889      -2.74396791       0.00000000
