10
Lattice="16.28999089631971 0.0 0.0 0.0 16.28999089631971 0.0 0.0 0.0 34.51877397758722" Properties=species:S:1:pos:R:3:initial_magmoms:R:1 pbc="T T T"
Si      -2.19427929      -0.35341155       0.69179114       0.00000000
Si       0.91469979      -2.13649866       0.27138675       0.00000000
Si       0.60698169       0.29870973      -2.24002805       0.00000000
Si       0.20321775       2.05928406       1.19749146       0.00000000
Si      -1.54707759       0.39240981      -3.11059202       0.00000000
Si       3.17241234      -1.71509265       0.52220030       0.00000000
Si      -1.99855494      -0.43816842       3.01742579       0.00000000
Si      -0.62245719       1.44036180       3.32488469       0.00000000
Si      -3.30618582       1.72683774       0.18094751       0.00000000
Si       2.39702463       2.41852743       1.86546463       0.00000000
