10
Lattice="16.28999089631971 0.0 0.0 0.0 16.28999089631971 0.0 0.0 0.0 34.51877397758722" Properties=species:S:1:pos:R:3:initial_magmoms:R:1 pbc="T T T"
Si      -1.35477414      -1.23108417       1.50683650       0.00000000
Si      -1.75008357       1.03650012      -1.30429260       0.00000000
Si       1.27614231      -1.53378495      -1.37723081       0.00000000
Si       1.39919697       1.60990812       1.32092173       0.00000000
Si      -3.26208879      -0.99163746      -1.28506564       0.00000000
Si      -2.31361983      -2.83364550       0.03151566       0.00000000
Si       0.01809819      -2.55168189       2.81790859       0.00000000
Si       2.72244996      -2.67354738       0.06972796       0.00000000
Si      -2.71788876       0.17609490       2.79706269       0.00000000
Si       2.71337643       0.18163350       2.80330714       0.00000000
