10
Lattice="16.28999089631971 0.0 0.0 0.0 16.28999089631971 0.0 0.0 0.0 34.51877397758722" Properties=species:S:1:pos:R:3:initial_magmoms:R:1 pbc="T T T"
Si       1.35783666      -1.35762489      -1.35707184       0.00000000
Si      -1.35788553       1.35760860      -1.35738251       0.00000000
Si      -1.35809730      -1.35721764       1.35796933       0.00000000
Si       1.35692442       1.35786924       1.35865970       0.00000000
Si      -2.71363707       0.00039096      -2.71500665       0.00000000
Si       2.71503801       0.00029322      -2.71414368       0.00000000
Si       0.00037467      -2.71487511      -2.71466146       0.00000000
Si       2.71503801       2.71471221      -0.00003452       0.00000000
Si       2.71490769      -2.71487511       0.00062134       0.00000000
Si      -2.71518462      -2.71515204       0.00041423       0.00000000
