10
Lattice="16.28999089631971 0.0 0.0 0.0 16.28999089631971 0.0 0.0 0.0 34.51877397758722" Properties=species:S:1:pos:R:3:initial_magmoms:R:1 pbc="T T T"
Si       1.48859160       1.20042639      -1.33895780       0.00000000
Si      -1.30095630       1.42021107       1.40661321       0.00000000
Si      -1.52491897      -1.17320580      -1.42118156       0.00000000
Si       1.41989667      -1.30663719       1.41369992       0.00000000
Si      -0.27315235       1.09157661      -3.05858052       0.00000000
Si       2.74611444      -2.67884163      -0.11810605       0.00000000
Si      -2.65518433       0.05566293       2.79492456       0.00000000
Si       0.06445953      -2.65992894       2.79661598       0.00000000
Si      -2.75072518      -2.70640431       0.11479570       0.00000000
Si      -2.60830171       2.87244828      -0.12861702       0.00000000
