10
Lattice="16.28999089631971 0.0 0.0 0.0 16.28999089631971 0.0 0.0 0.0 34.51877397758722" Properties=species:S:1:pos:R:3:initial_magmoms:R:1 pbc="T T T"
Si       1.35376416      -1.35628911      -1.36059276       0.00000000
Si      -1.36169739       1.35927018      -1.35959171       0.00000000
Si       1.33895655       1.38077298       1.36314715       0.00000000
Si      -1.35545832      -1.36982610       1.36711681       0.00000000
Si       2.52029106      -0.09308106       2.73730579       0.00000000
Si      -2.67318900       0.07195293       2.68583827       0.00000000
Si       2.71285515       2.71528236      -0.00082845       0.00000000
Si       2.71422351      -2.71502172      -0.00031067       0.00000000
Si       2.71140534       0.00115659      -2.71807882       0.00000000
Si      -0.00371412      -2.71347417      -2.71763008       0.00000000
