10
Lattice="16.28999089631971 0.0 0.0 0.0 16.28999089631971 0.0 0.0 0.0 34.51877397758722" Properties=species:S:1:pos:R:3:initial_magmoms:R:1 pbc="T T T"
Si      -0.97145415      -0.24104313      -2.12642670       0.00000000
Si      -0.03108132      -2.20749048       0.84791964       0.00000000
Si       2.26163844       0.65505348      -0.23776545       0.00000000
Si      -1.51552386       1.18208385       1.47629975       0.00000000
Si      -1.44016632       2.07575325      -2.62660402       0.00000000
Si      -2.28509604      -2.48218875       1.41188768       0.00000000
Si       3.04287426       0.61110306       2.00153771       0.00000000
Si       2.15067096       2.93206968      -0.83804726       0.00000000
Si      -3.26256120      -0.34841052       1.79169796       0.00000000
Si      -0.30563298       1.48128228       3.46268371       0.00000000
