10
Lattice="16.28999089631971 0.0 0.0 0.0 16.28999089631971 0.0 0.0 0.0 34.51877397758722" Properties=species:S:1:pos:R:3:initial_magmoms:R:1 pbc="T T T"
Si       1.18133451      -1.47385404       1.37415864       0.00000000
Si       1.37389860       1.33450938      -1.36397560       0.00000000
Si      -1.33895655      -1.38077298      -1.36314715       0.00000000
Si      -1.42618950       1.32633180       1.45486358       0.00000000
Si      -0.58999122      -2.10268062       2.82560486       0.00000000
Si      -2.70733284       2.70133812       0.00479811       0.00000000
Si       2.73048093       2.68587891       0.02958261       0.00000000
Si       0.01337409       2.69252523      -2.72477547       0.00000000
Si      -2.70065394      -0.02150280      -2.72273886       0.00000000
Si      -2.69441487      -2.75059908       0.00396966       0.00000000
