10
Lattice="16.28999089631971 0.0 0.0 0.0 16.28999089631971 0.0 0.0 0.0 34.51877397758722" Properties=species:S:1:pos:R:3:initial_magmoms:R:1 pbc="T T T"
Si      -1.35645690      -1.35610992       1.35717539       0.00000000
Si      -1.35725837       1.35738054      -1.35779673       0.00000000
Si       1.35769005      -1.35733167      -1.35793481       0.00000000
Si       1.35832536       1.35840681       1.35693376       0.00000000
Si      -2.71482480       2.71417464       0.00006904       0.00000000
Si      -2.71371603      -0.00001629      -2.71552443       0.00000000
Si      -2.71481185      -2.71446786       0.00000000       0.00000000
Si       0.00053757       2.71489140      -2.71455790       0.00000000
Si       0.00087966      -2.71485882      -2.71497213       0.00000000
Si       2.71560816      -0.00004887      -2.71441983       0.00000000
