10
Lattice="16.28999089631971 0.0 0.0 0.0 16.28999089631971 0.0 0.0 0.0 34.51877397758722" Properties=species:S:1:pos:R:3:initial_magmoms:R:1 pbc="T T T"
Si       1.36575360       1.35008328      -1.37101743       0.00000000
Si      -1.35480672      -1.36381509      -1.37098291       0.00000000
Si       1.28114334      -1.37500632       1.45006547       0.00000000
Si      -1.30561092       1.50160359       1.32938777       0.00000000
Si       2.70332550       2.70161898      -0.00728347       0.00000000
Si       2.70733284      -2.70133812      -0.00479811       0.00000000
Si      -2.70593190      -2.71039536      -0.00914748       0.00000000
Si       2.57562819       0.02663415       2.83758288       0.00000000
Si      -2.71950147       2.70658906      -0.02592361       0.00000000
Si       0.00619020       2.70467987      -2.72770956       0.00000000
