10
Lattice="16.28999089631971 0.0 0.0 0.0 16.28999089631971 0.0 0.0 0.0 34.51877397758722" Properties=species:S:1:pos:R:3:initial_magmoms:R:1 pbc="T T T"
Si       1.94180058      -0.14685435       1.29348822       0.00000000
Si      -1.55419632      -1.79061309       0.23458972       0.00000000
Si      -0.95667912       1.97383391      -0.97004713       0.00000000
Si       2.00490804      -1.15176816      -0.90000850       0.00000000
Si      -1.87633107       0.32320128      -2.40820361       0.00000000
Si       0.71042319      -2.55340863      -2.28752591       0.00000000
Si      -3.33202176      -0.72283617      -0.94471033       0.00000000
Si       0.74704311       2.85302150      -2.31555517       0.00000000
Si      -0.57072015      -1.17840231      -3.73759138       0.00000000
Si      -2.64798837      -1.71108531       2.46360628       0.00000000
