10
Lattice="16.28999089631971 0.0 0.0 0.0 16.28999089631971 0.0 0.0 0.0 34.51877397758722" Properties=species:S:1:pos:R:3:initial_magmoms:R:1 pbc="T T T"
Si      -1.87146036       1.38147345       0.30386894       0.00000000
Si       0.90868878      -0.24335631       2.15359299       0.00000000
Si       1.63082448       1.52081811      -0.82254832       0.00000000
Si      -0.32521356      -2.34882252      -0.67829429       0.00000000
Si       3.50306676      -0.00794952      -0.81122616       0.00000000
Si      -3.02500413       1.11226491      -1.73398254       0.00000000
Si       1.48056552      -2.57307066       2.21800506       0.00000000
Si       1.68603129      -3.41547543      -0.00379707       0.00000000
Si       2.68757307       1.28635614       2.42011260       0.00000000
Si      -3.47252301       0.21286143       1.66580793       0.00000000
