10
Lattice="16.28999089631971 0.0 0.0 0.0 16.28999089631971 0.0 0.0 0.0 34.51877397758722" Properties=species:S:1:pos:R:3:initial_magmoms:R:1 pbc="T T T"
Si      -1.35632169       1.35286821      -1.36114506       0.00000000
Si       1.35912357       1.35382932       1.36038564       0.00000000
Si       1.35876519      -1.36183423      -1.36038564       0.00000000
Si      -1.37448504      -1.36645733       1.36035112       0.00000000
Si       2.56606596      -0.05800869       2.81507663       0.00000000
Si       2.71251557       2.71401174      -0.00448744       0.00000000
Si      -2.71573848       2.71168227      -0.00051778       0.00000000
Si       0.00193851       2.71109583      -2.71856208       0.00000000
Si      -2.71205694      -2.71799303      -0.00338284       0.00000000
Si      -2.71353933      -0.00389331      -2.71852756       0.00000000
