10
Lattice="16.28999089631971 0.0 0.0 0.0 16.28999089631971 0.0 0.0 0.0 34.51877397758722" Properties=species:S:1:pos:R:3:initial_magmoms:R:1 pbc="T T T"
Si       0.44292510       1.14836355       1.99932851       0.00000000
Si      -2.34810576       0.27784224      -0.02892675       0.00000000
Si       0.28036719      -2.36281726      -0.10006998       0.00000000
Si      -2.41349382       0.99274518      -2.30889304       0.00000000
Si      -3.08783466      -1.48602267       1.47308950       0.00000000
Si       0.21548412       3.45290985       1.40802158       0.00000000
Si      -1.31380479      -3.12673844       1.61665316       0.00000000
Si      -0.01902672      -2.87122164      -2.42977786       0.00000000
Si       2.10197610       3.11981193      -0.05947588       0.00000000
Si      -0.70353252       0.22405266       3.76037378       0.00000000
