10
Lattice="16.28999089631971 0.0 0.0 0.0 16.28999089631971 0.0 0.0 0.0 34.51877397758722" Properties=species:S:1:pos:R:3:initial_magmoms:R:1 pbc="T T T"
Si       1.97758875      -1.30501375       0.14542768       0.00000000
Si      -0.28036719       2.36281726       0.10006998       0.00000000
Si      -0.29939391      -0.50840438      -2.32970788       0.00000000
Si      -1.59417198      -0.76392118       1.71672315       0.00000000
Si       0.74598426      -2.64550156      -1.53757061       0.00000000
Si      -2.44328823      -2.47126372      -0.00466004       0.00000000
Si      -2.50932789      -1.31558596      -2.08621231       0.00000000
Si      -0.36906624       0.33643737       3.64421804       0.00000000
Si      -2.62847295       2.64065950       0.07114323       0.00000000
Si      -3.36820185       0.87679459       1.57315948       0.00000000
