10
Lattice="16.28999089631971 0.0 0.0 0.0 16.28999089631971 0.0 0.0 0.0 34.51877397758722" Properties=species:S:1:pos:R:3:initial_magmoms:R:1 pbc="T T T"
Si      -1.35596494       1.35594702      -1.36083439       0.00000000
Si       1.36094805      -1.35689184      -1.36166284       0.00000000
Si      -1.36237342      -1.34894232       1.36960216       0.00000000
Si       1.36254447       1.35773892       1.36632288       0.00000000
Si       2.71539639      -2.71248048       0.00079393       0.00000000
Si      -2.71221316       2.71617831      -0.00079393       0.00000000
Si      -2.71615041      -2.71256193      -0.00507426       0.00000000
Si      -2.71220211      -0.00112401      -2.71852756       0.00000000
Si       2.71438641       2.71717200      -0.00103556       0.00000000
Si       0.00278559       2.71479366      -2.71797526       0.00000000
