10
Lattice="16.28999089631971 0.0 0.0 0.0 16.28999089631971 0.0 0.0 0.0 34.51877397758722" Properties=species:S:1:pos:R:3:initial_magmoms:R:1 pbc="T T T"
Si       1.35739683       1.35713619      -1.35727895       0.00000000
Si      -1.35715248       1.35747828       1.35790029       0.00000000
Si       1.35793440      -1.35775521       1.35727895       0.00000000
Si      -1.35788553      -1.35920502      -1.35603627       0.00000000
Si      -0.00180819      -2.71358820      -2.71334974       0.00000000
Si       2.71373481      -0.00236205       2.71369493       0.00000000
Si      -2.71370223      -0.00029322      -2.71407464       0.00000000
Si      -2.71386513       0.00026064       2.71493761       0.00000000
Si      -2.71422351       2.71472850       0.00020711       0.00000000
Si       0.00032580       2.71466334       2.71493761       0.00000000
