10
Lattice="16.28999089631971 0.0 0.0 0.0 16.28999089631971 0.0 0.0 0.0 34.51877397758722" Properties=species:S:1:pos:R:3:initial_magmoms:R:1 pbc="T T T"
Si      -0.42595092      -1.27969353      -1.80446992       0.00000000
Si       1.93653632       0.42350742       1.24440250       0.00000000
Si      -1.34915409       2.03168880      -0.67018237       0.00000000
Si      -2.44490094      -0.39273561      -0.52054340       0.00000000
Si       2.56740730      -0.17917371      -1.07443196       0.00000000
Si       1.21011489      -1.50807933       2.42701635       0.00000000
Si       1.23333579       0.18542907      -3.15325725       0.00000000
Si       1.12648608       2.39275665       2.19052810       0.00000000
Si       2.20628895       2.13825798      -1.85738723       0.00000000
Si      -1.25309196       2.89999467       1.88393218       0.00000000
