10
Lattice="16.28999089631971 0.0 0.0 0.0 16.28999089631971 0.0 0.0 0.0 34.51877397758722" Properties=species:S:1:pos:R:3:initial_magmoms:R:1 pbc="T T T"
Si      -2.19380688      -0.35924337      -0.66797317       0.00000000
Si       0.59142474      -1.48157550       1.73111748       0.00000000
Si       1.83285306       0.20333178      -1.52773275       0.00000000
Si       0.33368436       2.26154070       0.77705256       0.00000000
Si       1.31121468       2.52073089      -1.33988148       0.00000000
Si       2.39065524      -0.10941993       2.29073616       0.00000000
Si       3.43806966      -0.42362145       0.18774772       0.00000000
Si      -3.01948182      -0.97816563       1.45942006       0.00000000
Si      -2.84609106       1.83524769      -1.52428087       0.00000000
Si      -1.32924771      -1.84718826       2.99554088       0.00000000
