10
Lattice="16.28999089631971 0.0 0.0 0.0 16.28999089631971 0.0 0.0 0.0 34.51877397758722" Properties=species:S:1:pos:R:3:initial_magmoms:R:1 pbc="T T T"
Si       2.30599026       0.71159607       0.31905721       0.00000000
Si       0.29004345      -1.12772412      -2.17002394       0.00000000
Si      -1.37868786       2.07506907      -0.63531839       0.00000000
Si       1.05422364      -1.55318634       1.95645616       0.00000000
Si      -1.84713939       1.68296877       1.86936525       0.00000000
Si       2.00469042      -2.61895959      -1.34505930       0.00000000
Si      -2.06247690      -1.85106528      -2.38524861       0.00000000
Si       3.65921360      -1.10578149      -0.46779869       0.00000000
Si       1.84589876      -3.47224608       0.83756400       0.00000000
Si       1.52080901       0.31307751      -3.71218555       0.00000000
