10
Lattice="16.28999089631971 0.0 0.0 0.0 16.28999089631971 0.0 0.0 0.0 34.51877397758722" Properties=species:S:1:pos:R:3:initial_magmoms:R:1 pbc="T T T"
Si      -1.35799956       1.35597960       1.35800385       0.00000000
Si       1.35641943      -1.35953082       1.35758962       0.00000000
Si      -1.34200278      -1.38961845      -1.34785532       0.00000000
Si       1.37425698       1.35275418      -1.36550478       0.00000000
Si      -2.60812674      -0.08141742      -2.78411327       0.00000000
Si       2.71536381       2.70817992      -0.00107008       0.00000000
Si      -2.71630863       2.71070487      -0.00421129       0.00000000
Si      -0.00030951       2.71235016       2.71507568       0.00000000
Si       2.71422351      -0.00154755       2.71497213       0.00000000
Si       2.71246419      -2.71769328      -0.00300314       0.00000000
