10
Lattice="16.28999089631971 0.0 0.0 0.0 16.28999089631971 0.0 0.0 0.0 34.51877397758722" Properties=species:S:1:pos:R:3:initial_magmoms:R:1 pbc="T T T"
Si      -1.81798029      -0.80949897      -1.37965545       0.00000000
Si      -1.38508983       1.25366211       1.56103994       0.00000000
Si       1.30734542      -1.45223721       1.53523023       0.00000000
Si       1.15758369       1.90379601      -1.19915668       0.00000000
Si      -2.63783970       2.62953180       0.14164787       0.00000000
Si      -0.86069844       3.43008756      -1.33346931       0.00000000
Si      -3.61066221       0.84768273      -1.00198633       0.00000000
Si      -2.72880306      -2.72681568       0.07999730       0.00000000
Si       2.60830171      -2.87244828       0.12861702       0.00000000
Si      -0.04398300       2.60908785       2.92547463       0.00000000
