10
Lattice="16.28999089631971 0.0 0.0 0.0 16.28999089631971 0.0 0.0 0.0 34.51877397758722" Properties=species:S:1:pos:R:3:initial_magmoms:R:1 pbc="T T T"
Si      -1.35542574       1.35651717       1.35986786       0.00000000
Si      -1.35687555      -1.35760860      -1.35738251       0.00000000
Si       1.35817229       1.35726651      -1.35700280       0.00000000
Si       1.35760618      -1.35581670       1.36079987       0.00000000
Si      -2.71417464      -0.00070047      -2.71462694       0.00000000
Si       0.00035838      -2.71459818      -2.71473050       0.00000000
Si      -2.71451673      -2.71505430       0.00010356       0.00000000
Si       0.00081450       2.71495656      -2.71490309       0.00000000
Si       2.71385440      -2.71604799       0.00075941       0.00000000
Si       2.71537425      -0.00019548      -2.71473050       0.00000000
