10
Lattice="16.28999089631971 0.0 0.0 0.0 16.28999089631971 0.0 0.0 0.0 34.51877397758722" Properties=species:S:1:pos:R:3:initial_magmoms:R:1 pbc="T T T"
Si       0.81005024      -1.96924923      -0.94612560       0.00000000
Si      -2.37957804       0.50723802      -0.30659592       0.00000000
Si       1.18528225       0.33218568       2.16049675       0.00000000
Si       1.23113860       1.20860397      -1.82521571       0.00000000
Si      -1.12648608      -2.39275665      -2.19052810       0.00000000
Si      -2.30902605       2.90649438       0.20255628       0.00000000
Si      -0.47962647       1.38305358       3.49585627       0.00000000
Si      -2.47564017      -0.36106785      -2.86071047       0.00000000
Si       2.97954593       1.82505015       1.56950049       0.00000000
Si       0.08362881      -3.90083598       0.23648825       0.00000000
