10
Lattice="16.28999089631971 0.0 0.0 0.0 16.28999089631971 0.0 0.0 0.0 34.51877397758722" Properties=species:S:1:pos:R:3:initial_magmoms:R:1 pbc="T T T"
Si       1.15637823       2.09810313      -0.58833831       0.00000000
Si      -1.79848116       0.29470239      -1.79207767       0.00000000
Si       1.37868786      -2.07506907       0.63531839       0.00000000
Si      -0.46845153      -0.39210030       2.50468364       0.00000000
Si      -2.26113345       1.26508140       2.88235276       0.00000000
Si       1.66873131      -3.20279319      -1.53470555       0.00000000
Si       1.04417271       2.24740098      -3.04690484       0.00000000
Si       3.68467812      -1.36347300       0.95437560       0.00000000
Si      -3.83175009       1.08580995      -0.78423246       0.00000000
Si      -1.33817463       2.17432404      -3.18266726       0.00000000
