10
Lattice="16.28999089631971 0.0 0.0 0.0 16.28999089631971 0.0 0.0 0.0 34.51877397758722" Properties=species:S:1:pos:R:3:initial_magmoms:R:1 pbc="T T T"
Si       2.11206107       0.35883612       1.03632321       0.00000000
Si      -0.91018746       2.14848810       0.55150676       0.00000000
Si      -0.11220552       0.14929785      -2.45856653       0.00000000
Si      -1.15637823      -2.09810313       0.58833831       0.00000000
Si       2.09960900      -1.54707759      -1.86422195       0.00000000
Si       3.14371655      -1.55592306       0.23307089       0.00000000
Si       1.35073422       0.22309155       3.27352072       0.00000000
Si      -2.49455286       0.07622091      -2.59432895       0.00000000
Si      -0.66754791       1.74938310       3.13920810       0.00000000
Si      -2.95485939      -1.80340074      -1.20373936       0.00000000
