10
Lattice="16.28999089631971 0.0 0.0 0.0 16.28999089631971 0.0 0.0 0.0 34.51877397758722" Properties=species:S:1:pos:R:3:initial_magmoms:R:1 pbc="T T T"
Si      -1.35769005      -1.35637056      -1.35707184       0.00000000
Si       1.35729909      -1.35690813       1.35724443       0.00000000
Si      -1.35769005       1.35804843       1.35703732       0.00000000
Si       1.35721764       1.35809730      -1.35772770       0.00000000
Si       0.00030951      -2.71235016      -2.71507568       0.00000000
Si       2.71453302      -2.71389771      -0.00010356       0.00000000
Si       2.71417464       0.00070047       2.71462694       0.00000000
Si      -0.00177561       2.71523349       2.71369493       0.00000000
Si      -0.00034209      -2.71435383       2.71473050       0.00000000
Si      -2.71489140      -2.71428867       0.00000000       0.00000000
