10
Lattice="16.28999089631971 0.0 0.0 0.0 16.28999089631971 0.0 0.0 0.0 34.51877397758722" Properties=species:S:1:pos:R:3:initial_magmoms:R:1 pbc="T T T"
Si      -1.35591444      -1.35718506      -1.35665761       0.00000000
Si      -1.35495333       1.35889617       1.35855615       0.00000000
Si       1.35871632       1.35788262      -1.35648502       0.00000000
Si       1.36052451      -1.35801585       1.36079987       0.00000000
Si      -0.01337409      -2.69252523       2.72477547       0.00000000
Si      -2.71375110       0.00070047      -2.71355686       0.00000000
Si      -2.71451673       2.71349276       0.00186401       0.00000000
Si      -2.71402803      -2.71402803       0.00203661       0.00000000
Si       0.00177561      -2.71523349      -2.71369493       0.00000000
Si       0.00092853       2.71566096      -2.71348782       0.00000000
