10
Lattice="16.28999089631971 0.0 0.0 0.0 16.28999089631971 0.0 0.0 0.0 34.51877397758722" Properties=species:S:1:pos:R:3:initial_magmoms:R:1 pbc="T T T"
Si       0.19184733       2.26351179      -0.76445320       0.00000000
Si      -0.53722791       0.03088584       2.36533127       0.00000000
Si      -1.59822819      -1.44252837      -1.14916515       0.00000000
Si       2.36599218      -0.94278375      -0.36479461       0.00000000
Si       1.45743372       1.12179456       2.79201807       0.00000000
Si      -0.06952572      -2.54804596      -2.60730801       0.00000000
Si      -0.72700641      -2.28154482       2.94051792       0.00000000
Si       1.74674412      -3.26272084      -1.12258568       0.00000000
Si       3.26375037      -0.19699497       2.09000938       0.00000000
Si      -1.74907359      -3.33593299       1.02037553       0.00000000
