10
Lattice="16.28999089631971 0.0 0.0 0.0 16.28999089631971 0.0 0.0 0.0 34.51877397758722" Properties=species:S:1:pos:R:3:initial_magmoms:R:1 pbc="T T T"
Si       1.99466163       1.09090872       0.42668680       0.00000000
Si      -0.18977850      -2.31243066       0.57518665       0.00000000
Si      -1.64784753       1.54051272       0.79817806       0.00000000
Si       0.53722791      -0.03088584      -2.36533127       0.00000000
Si      -1.59853770      -1.94453730       2.48842529       0.00000000
Si       1.58009742       1.89744291       2.57558524       0.00000000
Si      -2.80270102       0.12961953       2.28013889       0.00000000
Si      -0.26430525       3.15511236       1.82901278       0.00000000
Si       3.80097828      -0.22788081      -0.27532190       0.00000000
Si      -1.21184568      -3.36681883      -1.34495574       0.00000000
