10
Lattice="16.28999089631971 0.0 0.0 0.0 16.28999089631971 0.0 0.0 0.0 34.51877397758722" Properties=species:S:1:pos:R:3:initial_magmoms:R:1 pbc="T T T"
Si       0.72642144       1.93158675      -1.18261386       0.00000000
Si       1.65398381      -0.80137026       1.52314175       0.00000000
Si      -1.88649198       0.33309792       1.46749746       0.00000000
Si      -1.21011489       1.50807933      -2.42701635       0.00000000
Si      -1.65905100      -1.97144838       2.05880439       0.00000000
Si      -2.10197610      -3.11981193       0.05947588       0.00000000
Si       0.49913032      -2.21226345       3.00510259       0.00000000
Si       3.05459801       1.79703135      -1.34644005       0.00000000
Si      -0.08362881       3.90083598      -0.23648825       0.00000000
Si       1.35729241       1.32890562      -3.50144831       0.00000000
