10
Lattice="16.28999089631971 0.0 0.0 0.0 16.28999089631971 0.0 0.0 0.0 34.51877397758722" Properties=species:S:1:pos:R:3:initial_magmoms:R:1 pbc="T T T"
Si      -1.37889053       0.18490779      -1.86094266       0.00000000
Si       2.27551752      -0.51333048      -0.47152672       0.00000000
Si       0.35649036       2.31301710       0.62430690       0.00000000
Si      -1.23076556      -1.44080163       1.54216161       0.00000000
Si      -1.68335063       2.50445718      -1.83570943       0.00000000
Si       3.24159597      -0.08236224       1.62007052       0.00000000
Si       0.48388142      -2.93203710       2.36712625       0.00000000
Si       1.40059791       2.30417163       2.72159974       0.00000000
Si       2.50406622      -2.89619910      -0.85924180       0.00000000
Si      -0.33147611      -0.12929373      -3.96393111       0.00000000
