10
Lattice="16.28999089631971 0.0 0.0 0.0 16.28999089631971 0.0 0.0 0.0 34.51877397758722" Properties=species:S:1:pos:R:3:initial_magmoms:R:1 pbc="T T T"
Si       1.27146382      -1.33116993      -1.42020671       0.00000000
Si      -0.15879166      -0.85328649       2.18262330       0.00000000
Si       1.65452317       1.51317810       0.87726061       0.00000000
Si      -1.71464697       1.49123547      -0.82496464       0.00000000
Si      -2.00469042       2.61895959       1.34505930       0.00000000
Si      -0.95046678       1.06577325       3.30151546       0.00000000
Si       0.30129984       3.33055566       1.66411650       0.00000000
Si      -0.48388142       2.93203710      -2.36712625       0.00000000
Si       2.02018480       0.03583800      -3.22636805       0.00000000
Si      -1.68866442      -2.77451280       2.06122070       0.00000000
