10
Lattice="16.28999089631971 0.0 0.0 0.0 16.28999089631971 0.0 0.0 0.0 34.51877397758722" Properties=species:S:1:pos:R:3:initial_magmoms:R:1 pbc="T T T"
Si       0.61541665       1.90565307      -1.30964302       0.00000000
Si       1.35322333      -1.81737756      -0.78685589       0.00000000
Si      -2.30599026      -0.71159607      -0.31905721       0.00000000
Si       1.76174395       0.10884978       1.71962272       0.00000000
Si      -1.25176662      -2.26478241       1.63739896       0.00000000
Si       0.27315235      -1.09157661       3.05858052       0.00000000
Si       2.89559311       1.47276261      -1.18447787       0.00000000
Si       2.45641471      -0.48088080      -2.41117223       0.00000000
Si       3.43026349      -0.95330709       0.17663267       0.00000000
Si      -2.01594681      -1.83932019      -2.48908115       0.00000000
