10
Lattice="16.28999089631971 0.0 0.0 0.0 16.28999089631971 0.0 0.0 0.0 34.51877397758722" Properties=species:S:1:pos:R:3:initial_magmoms:R:1 pbc="T T T"
Si      -1.35507876       1.35581670      -1.35903941       0.00000000
Si       1.35681039       1.35752715       1.35703732       0.00000000
Si      -1.35803540      -1.35748642       1.35720991       0.00000000
Si       1.35654975      -1.35966766      -1.36004045       0.00000000
Si       2.71446786      -0.00037467       2.71486857       0.00000000
Si      -2.71459569       2.71484253      -0.00055230       0.00000000
Si       2.71472850       2.71480995       0.00055230       0.00000000
Si      -2.71444638      -2.71525551       0.00006904       0.00000000
Si      -0.00087966       2.71485882       2.71497213       0.00000000
Si       0.00021177      -2.71581341       2.71479953       0.00000000
