10
Lattice="16.28999089631971 0.0 0.0 0.0 16.28999089631971 0.0 0.0 0.0 34.51877397758722" Properties=species:S:1:pos:R:3:initial_magmoms:R:1 pbc="T T T"
Si      -0.79888929       1.93608279      -1.12462228       0.00000000
Si       1.88899003       1.20871800       1.06904703       0.00000000
Si      -1.23113860      -1.20860397       1.82521571       0.00000000
Si      -0.15133573      -1.46310264      -2.22269962       0.00000000
Si      -2.16261709      -0.12758328      -2.49639913       0.00000000
Si      -0.42108835      -3.17785320       0.87909011       0.00000000
Si       3.73428865       0.30099033      -0.20511067       0.00000000
Si       1.25079670       3.03779178      -1.81347932       0.00000000
Si       2.78656903       1.12967892      -2.29356670       0.00000000
Si      -2.22313444       3.05242020       0.48353926       0.00000000
