10
Lattice="16.28999089631971 0.0 0.0 0.0 16.28999089631971 0.0 0.0 0.0 34.51877397758722" Properties=species:S:1:pos:R:3:initial_magmoms:R:1 pbc="T T T"
Si      -2.32817657       0.13455540       0.16382619       0.00000000
Si       0.97630857      -1.90628838      -1.05838072       0.00000000
Si       0.99111618       0.32770593       2.21803958       0.00000000
Si       1.35751086       1.35347094      -1.61499626       0.00000000
Si      -1.69730560      -0.46812573      -2.15500826       0.00000000
Si       2.84281677      -0.34241580      -0.71878483       0.00000000
Si       2.76731262      -0.94252311       1.49076312       0.00000000
Si       0.68598819      -1.31654151      -3.30130835       0.00000000
Si      -3.05459801      -1.79703135       1.34644005       0.00000000
Si      -1.90708822       3.31240860      -0.71526392       0.00000000
