10
Lattice="16.28999089631971 0.0 0.0 0.0 16.28999089631971 0.0 0.0 0.0 34.51877397758722" Properties=species:S:1:pos:R:3:initial_magmoms:R:1 pbc="T T T"
Si      -1.80271656       0.49961430      -1.50577880       0.00000000
Si       2.23111098      -0.79770501      -0.39627575       0.00000000
Si      -0.94724721      -1.40048388       1.70999198       0.00000000
Si       0.52421220       2.28374397       0.57601510       0.00000000
Si      -1.60059024       2.89766520       1.41150798       0.00000000
Si      -2.85427353       2.37027645      -0.50625262       0.00000000
Si       2.52411921       2.08964862       1.86587885       0.00000000
Si       3.50158437      -0.04412961       1.48606857       0.00000000
Si       3.01097844       0.56167920      -2.25614833       0.00000000
Si       1.14727212       1.89630261      -3.10955645       0.00000000
