10
Lattice="16.28999089631971 0.0 0.0 0.0 16.28999089631971 0.0 0.0 0.0 34.51877397758722" Properties=species:S:1:pos:R:3:initial_magmoms:R:1 pbc="T T T"
Si       1.35387042       1.33938009       1.37442789       0.00000000
Si      -1.35923301      -1.37914398       1.37418626       0.00000000
Si       1.51658308      -1.13370255      -1.44754214       0.00000000
Si      -1.42750440       1.25617077      -1.50589962       0.00000000
Si      -0.15766632      -2.08443582      -2.75044506       0.00000000
Si      -2.17594845      -0.55814427      -2.88475769       0.00000000
Si      -2.72221731       2.68131771      -0.00401108       0.00000000
Si       2.69162477      -2.71319724       0.00340355       0.00000000
Si       2.71260629       2.70402597      -0.00081119       0.00000000
Si      -0.00185639       2.69830963       2.73305307       0.00000000
