10
Lattice="16.28999089631971 0.0 0.0 0.0 16.28999089631971 0.0 0.0 0.0 34.51877397758722" Properties=species:S:1:pos:R:3:initial_magmoms:R:1 pbc="T T T"
Si       1.35727853       1.35759231       1.35641598       0.00000000
Si       1.35720196      -1.35746199      -1.35772770       0.00000000
Si      -1.35817229      -1.35726651       1.35700280       0.00000000
Si      -1.35735779       1.35769005      -1.35790029       0.00000000
Si       2.71049046       0.00195480       2.71566250       0.00000000
Si      -0.00112355      -2.71459818      -2.71410916       0.00000000
Si       2.71443264      -2.71446786       0.00062134       0.00000000
Si       2.71435119       0.00131949      -2.71507568       0.00000000
Si      -2.71504784      -2.71487511      -0.00037971       0.00000000
Si       2.71536117       2.71475849      -0.00017259       0.00000000
