10
Lattice="10.86 0.0 0.0 0.0 10.86 0.0 0.0 0.0 10.86" Properties=species:S:1:pos:R:3:initial_magmoms:R:1 pbc="T T T"
Si      -1.34549970       1.34564088      -1.35524112       0.00000000
Si      -1.34549970      -1.36935912       1.35975888       0.00000000
Si       1.36950030      -1.36935912      -1.35524112       0.00000000
Si       1.11242238       1.54768032       1.43103306       0.00000000
Si      -0.00710244       2.75743002      -2.59716900       0.00000000
Si      -2.70299970       2.70314088       0.00225888       0.00000000
Si       2.72748900      -0.04469976       2.68110594       0.00000000
Si      -2.70299970      -0.01185912      -2.71274112       0.00000000
Si      -2.70299970      -0.01185912       2.71725888       0.00000000
Si      -2.70299970      -2.72685912       0.00225888       0.00000000
