10
Lattice="10.86 0.0 0.0 0.0 10.86 0.0 0.0 0.0 10.86" Properties=species:S:1:pos:R:3:initial_magmoms:R:1 pbc="T T T"
Si       1.48027230       1.14761964       1.17317322       0.00000000
Si      -1.23472770       1.14761964      -1.54182678       0.00000000
Si      -1.23472770      -1.56738036       1.17317322       0.00000000
Si       1.22319438      -1.36534092      -1.47055260       0.00000000
Si       0.12277230       2.50511964       2.53067322       0.00000000
Si      -2.59222770       2.50511964      -0.18432678       0.00000000
Si      -2.59222770      -0.20988036       2.53067322       0.00000000
Si       2.83777230      -0.20988036       2.53067322       0.00000000
Si       0.08455596       2.54478036      -2.83525278       0.00000000
Si       2.88596898       2.49099078      -0.19844478       0.00000000
