10
Lattice="16.28999089631971 0.0 0.0 0.0 16.28999089631971 0.0 0.0 0.0 34.32429715621058" Properties=species:S:1:pos:R:3:initial_magmoms:R:1 pbc="T T T"
Si       1.55950686       0.95932529       1.40283481       0.00000000
Si       0.46897281      -2.29535874       0.05282512       0.00000000
Si      -2.17790784       0.18608067       0.84554521       0.00000000
Si      -0.35282511       0.54599193      -2.26818515       0.00000000
Si      -0.72723447      -2.99077884      -1.84506930       0.00000000
Si       0.92323575       0.10552662       3.53331080       0.00000000
Si       0.30367818      -1.47536901      -3.33041977       0.00000000
Si      -3.48049014      -0.90034830      -0.74288118       0.00000000
Si      -2.73531254       0.76062834      -2.32966000       0.00000000
Si      -0.10075365      -3.22494759       2.10428654       0.00000000
