10
Lattice="16.28999089631971 0.0 0.0 0.0 16.28999089631971 0.0 0.0 0.0 34.32429715621058" Properties=species:S:1:pos:R:3:initial_magmoms:R:1 pbc="T T T"
Si      -0.54309068      -1.03017960       2.00852169       0.00000000
Si      -1.30258230      -1.08642897      -1.58842639       0.00000000
Si       2.17790784      -0.18608067      -0.84554521       0.00000000
Si      -1.16137910       1.94470576      -0.81221630       0.00000000
Si      -0.55740470       0.57454767      -3.17520521       0.00000000
Si       1.82508273       0.35991126      -3.11373036       0.00000000
Si       0.88593165       0.00128691       3.55380242       0.00000000
Si       2.64688065      -2.48143941      -0.79272009       0.00000000
Si      -2.76557678      -0.66060837       2.55451859       0.00000000
Si      -3.55893236      -0.71249202      -1.20409702       0.00000000
