10
Lattice="16.28999089631971 0.0 0.0 0.0 16.28999089631971 0.0 0.0 0.0 34.32429715621058" Properties=species:S:1:pos:R:3:initial_magmoms:R:1 pbc="T T T"
Si      -1.80004663      -0.65156742       1.52186265       0.00000000
Si       1.89196947      -1.66447962       0.13987159       0.00000000
Si       0.79480539       1.97135064       1.44381602       0.00000000
Si      -1.11615822      -1.26962631      -1.98109657       0.00000000
Si      -0.49787127      -2.01303675       2.91552257       0.00000000
Si       2.22624027       0.71496810       2.89474606       0.00000000
Si       0.78703506      -3.34953351       1.42481065       0.00000000
Si      -3.00602302      -2.37221496       0.47005645       0.00000000
Si      -3.43371113      -1.11224862      -1.49341668       0.00000000
Si       3.61317087      -0.63254070       1.44620843       0.00000000
