10
Lattice="16.28999089631971 0.0 0.0 0.0 16.28999089631971 0.0 0.0 0.0 34.32429715621058" Properties=species:S:1:pos:R:3:initial_magmoms:R:1 pbc="T T T"
Si       2.21908407       0.84268170       0.36860883       0.00000000
Si      -1.46819719       1.82764026       0.80792576       0.00000000
Si      -1.40346073       0.00855225      -2.07871492       0.00000000
Si       0.23646727      -2.60855810      -0.00291757       0.00000000
Si      -0.36750712      -1.23840001       2.36007134       0.00000000
Si      -3.18092779       0.17189208       0.88797006       0.00000000
Si       1.76218215       2.91473712      -0.70327092       0.00000000
Si       0.38503858       0.63843768       3.56396241       0.00000000
Si       3.49809342      -0.79128675      -0.74246929       0.00000000
Si      -3.50342092      -0.69787989      -1.25324944       0.00000000
