10
Lattice="16.28999089631971 0.0 0.0 0.0 16.28999089631971 0.0 0.0 0.0 34.32429715621058" Properties=species:S:1:pos:R:3:initial_magmoms:R:1 pbc="T T T"
Si       1.35697329       1.35702216      -1.39349859       0.00000000
Si      -1.35578412      -1.36005210      -1.39260616       0.00000000
Si       1.39049811      -1.36295172       1.44577453       0.00000000
Si      -1.36712196       1.43519787       1.45802831       0.00000000
Si      -2.70938701       2.70386307      -0.03380945       0.00000000
Si       2.70264132       2.71687878      -0.01870675       0.00000000
Si       2.71132389      -2.71352304      -0.03947296       0.00000000
Si      -2.72275784      -2.71130597      -0.01973648       0.00000000
Si       0.00043983       2.71103067      -2.75469801       0.00000000
Si      -2.71424794      -0.00216657      -2.75442341       0.00000000
