10
Lattice="16.28999089631971 0.0 0.0 0.0 16.28999089631971 0.0 0.0 0.0 34.32429715621058" Properties=species:S:1:pos:R:3:initial_magmoms:R:1 pbc="T T T"
Si      -1.35000117      -1.36134620      -1.35920860       0.00000000
Si       1.29559257      -1.42396496       1.35014698       0.00000000
Si       1.36391283       1.34951247      -1.35934590       0.00000000
Si      -1.32082578       1.35057132       1.48524749       0.00000000
Si       2.04037137       0.40076658       2.65855560       0.00000000
Si      -2.15140401      -0.55869976       2.61053588       0.00000000
Si      -0.62118657      -2.46388598       2.55939265       0.00000000
Si       0.43831503       2.32647264       2.80865583       0.00000000
Si      -2.70777267      -0.00721321      -2.71381775       0.00000000
Si       0.00736308       2.70998811      -2.71330288       0.00000000
