10
Lattice="16.28999089631971 0.0 0.0 0.0 16.28999089631971 0.0 0.0 0.0 34.32429715621058" Properties=species:S:1:pos:R:3:initial_magmoms:R:1 pbc="T T T"
Si       0.86371209       1.64340036      -1.48850830       0.00000000
Si      -1.75914081      -0.97590132      -1.32340834       0.00000000
Si       1.60205634      -1.92570606      -0.15010024       0.00000000
Si      -0.17124048       0.90458370       2.46019537       0.00000000
Si      -2.04840234      -2.11977046       1.95095982       0.00000000
Si       2.75413401       1.67283639       1.63435232       0.00000000
Si       2.29496778       0.38540511      -2.82029178       0.00000000
Si      -0.43831503      -2.32647264      -2.80865583       0.00000000
Si       2.15984223       3.02963049      -0.11999781       0.00000000
Si       1.26884439      -2.93992798       2.02369304       0.00000000
