10
Lattice="16.28999089631971 0.0 0.0 0.0 16.28999089631971 0.0 0.0 0.0 34.32429715621058" Properties=species:S:1:pos:R:3:initial_magmoms:R:1 pbc="T T T"
Si      -1.35620766      -1.35617508      -1.35701185       0.00000000
Si      -1.35654975       1.35713619       1.35704617       0.00000000
Si       1.35653346      -1.35400851       1.36119941       0.00000000
Si       1.35918873       1.35817875      -1.35680590       0.00000000
Si      -2.71353281       0.00076563      -2.71357748       0.00000000
Si      -2.71468777      -2.71319724       0.00027459       0.00000000
Si       0.00182448      -2.71495656      -2.71364613       0.00000000
Si      -2.71347580       2.71564074       0.00013730       0.00000000
Si       2.71562445       2.71407690       0.00106405       0.00000000
Si       0.00175932       2.71627605      -2.71405802       0.00000000
