10
Lattice="16.28999089631971 0.0 0.0 0.0 16.28999089631971 0.0 0.0 0.0 34.32429715621058" Properties=species:S:1:pos:R:3:initial_magmoms:R:1 pbc="T T T"
Si       1.89071514       1.27537668      -0.49368664       0.00000000
Si      -1.44146952       0.89924058       1.60884936       0.00000000
Si      -1.36967949       0.06160878      -1.91076604       0.00000000
Si       0.98906364      -2.07935334       0.76800658       0.00000000
Si      -3.31635078      -0.76693320      -0.81939008       0.00000000
Si       2.12048559       0.46534014      -2.75517855       0.00000000
Si       3.28465044       0.53164044       1.31812240       0.00000000
Si       3.31144749      -1.69707591       0.48925881       0.00000000
Si      -0.92427831       3.18010122       1.86387903       0.00000000
Si      -1.56463821      -0.50554386       3.45755703       0.00000000
