10
Lattice="16.28999089631971 0.0 0.0 0.0 16.28999089631971 0.0 0.0 0.0 34.32429715621058" Properties=species:S:1:pos:R:3:initial_magmoms:R:1 pbc="T T T"
Si       1.36967949      -0.06160878       1.91076604       0.00000000
Si      -1.94667129      -0.82854198       1.09137596       0.00000000
Si      -0.36888705       1.87564689      -1.47282209       0.00000000
Si       0.57036177      -0.89925687      -2.18158490       0.00000000
Si      -3.09512769      -1.02227895      -0.96454761       0.00000000
Si      -2.71813148       1.32168915      -1.80219823       0.00000000
Si      -0.31174173      -3.15789795      -1.65412313       0.00000000
Si       3.49016508       0.40373136      -0.84441251       0.00000000
Si      -0.07179003       0.83763180       3.51961540       0.00000000
Si      -2.34997911       0.76859478       2.79540665       0.00000000
