10
Lattice="16.28999089631971 0.0 0.0 0.0 16.28999089631971 0.0 0.0 0.0 34.32429715621058" Properties=species:S:1:pos:R:3:initial_magmoms:R:1 pbc="T T T"
Si      -0.57036177       0.89925687       2.18158490       0.00000000
Si      -0.88210350      -2.25864108       0.52746177       0.00000000
Si       2.26764945      -1.01533941       0.25221508       0.00000000
Si      -0.93924882       2.77490376       0.70876281       0.00000000
Si      -1.14502410       1.74001635      -2.20362111       0.00000000
Si       2.91980331       1.30298823       1.33717239       0.00000000
Si      -3.13323489      -1.98299799      -0.23917184       0.00000000
Si       2.43888993      -1.91992311      -2.20798030       0.00000000
Si      -3.66548946      -0.12302208       1.21703728       0.00000000
Si      -3.28849325       2.22094602       0.37938667       0.00000000
