10
Lattice="16.28999089631971 0.0 0.0 0.0 16.28999089631971 0.0 0.0 0.0 34.32429715621058" Properties=species:S:1:pos:R:3:initial_magmoms:R:1 pbc="T T T"
Si      -0.36717660       0.48842307      -2.25150353       0.00000000
Si       0.42274179       2.05019424       1.06927110       0.00000000
Si       2.37944772      -0.43983000      -0.10705754       0.00000000
Si      -2.27486592      -0.32039172       0.79924171       0.00000000
Si       2.62800054       1.95403437       0.29463993       0.00000000
Si       0.98256393       1.01620278       3.20681790       0.00000000
Si      -1.82426823       2.31956568      -1.93407225       0.00000000
Si       1.74242727       1.09203273      -3.06461226       0.00000000
Si       2.92297986      -2.08601595       1.42607237       0.00000000
Si       0.16086375      -3.84477069      -0.43701720       0.00000000
