10
Lattice="16.28999089631971 0.0 0.0 0.0 16.28999089631971 0.0 0.0 0.0 34.32429715621058" Properties=species:S:1:pos:R:3:initial_magmoms:R:1 pbc="T T T"
Si      -1.35702141       1.35710361      -1.35673725       0.00000000
Si       1.35627261       1.35839052       1.35732077       0.00000000
Si       1.35800098      -1.35766399      -1.35663428       0.00000000
Si      -1.35770559      -1.35740497       1.35793860       0.00000000
Si      -2.71133943       0.00195480       2.71683829       0.00000000
Si      -2.71399470       2.71432125       0.00020595       0.00000000
Si       2.71437805      -0.00094482      -2.71422964       0.00000000
Si       0.00105960       2.71513575       2.71385207       0.00000000
Si      -2.71502097       0.00029322      -2.71429829       0.00000000
Si      -0.00001181       2.71472850      -2.71464153       0.00000000
