10
Lattice="16.28999089631971 0.0 0.0 0.0 16.28999089631971 0.0 0.0 0.0 34.32429715621058" Properties=species:S:1:pos:R:3:initial_magmoms:R:1 pbc="T T T"
Si      -2.28276657       0.39350124       0.52704988       0.00000000
Si       0.63874719       0.69299289      -2.21360948       0.00000000
Si      -0.61235739      -2.34807318      -0.02467918       0.00000000
Si       1.42926831       0.84747096       1.82529849       0.00000000
Si       3.52380393       0.09624132       1.03673165       0.00000000
Si      -2.52068202      -0.44139384       2.71742180       0.00000000
Si      -1.56004443      -2.61777042       2.22044002       0.00000000
Si      -0.92939337      -0.33713784      -3.64383510       0.00000000
Si      -2.71834488       2.63050920       0.42273828       0.00000000
Si       0.15196941       2.99542149      -2.41474998       0.00000000
