10
Lattice="16.28999089631971 0.0 0.0 0.0 16.28999089631971 0.0 0.0 0.0 34.32429715621058" Properties=species:S:1:pos:R:3:initial_magmoms:R:1 pbc="T T T"
Si      -1.43125569       1.25799525       1.33178347       0.00000000
Si       1.34584722       1.35606105      -1.34475807       0.00000000
Si       1.25240778      -1.41820740       1.40005454       0.00000000
Si      -1.36936998      -1.36236528      -1.34770996       0.00000000
Si      -0.69291144      -2.31111117       2.67019154       0.00000000
Si      -2.29496778      -0.38540511       2.82029178       0.00000000
Si      -0.13512555       2.64422538       2.70029397       0.00000000
Si       2.70252729      -0.00200367      -2.70307424       0.00000000
Si       2.70834282       2.70638802       0.03593756       0.00000000
Si      -0.01265733       2.71275741      -2.70365775       0.00000000
