10
Lattice="16.28999089631971 0.0 0.0 0.0 16.28999089631971 0.0 0.0 0.0 34.32429715621058" Properties=species:S:1:pos:R:3:initial_magmoms:R:1 pbc="T T T"
Si      -1.34587980      -1.33179036      -1.38196562       0.00000000
Si      -1.44218628       1.32333770       1.36411698       0.00000000
Si       1.36893015       1.38458810      -1.37973454       0.00000000
Si       1.39955535      -1.37194773       1.49194073       0.00000000
Si       0.34922502       2.10053360       2.67770857       0.00000000
Si       2.28869613       0.54832466       2.74464098       0.00000000
Si      -2.68978851      -2.69906145      -0.00525162       0.00000000
Si       2.73843045      -2.68752813       0.00051486       0.00000000
Si       0.00716760      -2.69076984      -2.73884017       0.00000000
Si      -2.69459406       2.74154510      -0.03593756       0.00000000
