10
Lattice="16.28999089631971 0.0 0.0 0.0 16.28999089631971 0.0 0.0 0.0 34.32429715621058" Properties=species:S:1:pos:R:3:initial_magmoms:R:1 pbc="T T T"
Si       0.59429178      -1.35679410       1.75435013       0.00000000
Si      -1.29613014      -1.38623013      -1.36851049       0.00000000
Si       1.44433656       1.37124333      -1.25561782       0.00000000
Si      -1.39233888       1.38539934       1.43818885       0.00000000
Si       0.28764882       3.04056108       1.85447416       0.00000000
Si       0.62385813      -0.03647331       3.63576888       0.00000000
Si      -2.15984223      -3.02963049       0.11999781       0.00000000
Si      -2.60683983       0.07429869      -2.66789181       0.00000000
Si       0.13512555      -2.64422538      -2.70029397       0.00000000
Si       2.30180958       3.07594296       0.12892213       0.00000000
