10
Lattice="16.28999089631971 0.0 0.0 0.0 16.28999089631971 0.0 0.0 0.0 34.32429715621058" Properties=species:S:1:pos:R:3:initial_magmoms:R:1 pbc="T T T"
Si      -1.44433656      -1.37124333       1.25561782       0.00000000
Si       0.85747302       1.70469963       1.38453995       0.00000000
Si       1.39913181      -1.30908069      -1.40873859       0.00000000
Si      -1.33011108       1.40263416      -1.42054616       0.00000000
Si      -1.15668774       1.66931775       3.11009198       0.00000000
Si       2.65621482       2.77255800       0.00281459       0.00000000
Si       0.03663621      -2.65940766      -2.78943422       0.00000000
Si      -2.67711489       0.05704758      -2.78984611       0.00000000
Si      -2.67867873       2.80090260      -0.01808891       0.00000000
Si      -2.74046670      -2.75747346      -0.11289268       0.00000000
