10
Lattice="16.28999089631971 0.0 0.0 0.0 16.28999089631971 0.0 0.0 0.0 34.32429715621058" Properties=species:S:1:pos:R:3:initial_magmoms:R:1 pbc="T T T"
Si      -0.02956635      -1.32032079      -1.88141875       0.00000000
Si       0.56540961      -1.53314964       1.63768178       0.00000000
Si      -2.30278698       0.22975416       0.02938161       0.00000000
Si       0.70685568       2.22568641       0.09727511       0.00000000
Si      -2.01619701       1.42187265      -2.19758003       0.00000000
Si       2.10515670      -2.19317157      -1.59031422       0.00000000
Si      -2.53255743       1.03979070       2.29087352       0.00000000
Si      -0.33620931       3.07703439      -1.78129472       0.00000000
Si      -0.62385813       0.03647331      -3.63576888       0.00000000
Si       1.41415119      -3.44963556       0.49790853       0.00000000
