10
Lattice="16.28999089631971 0.0 0.0 0.0 16.28999089631971 0.0 0.0 0.0 34.32429715621058" Properties=species:S:1:pos:R:3:initial_magmoms:R:1 pbc="T T T"
Si      -2.11056498      -0.59888556       0.80143846       0.00000000
Si       1.81294668      -1.19509956       0.91433114       0.00000000
Si       0.12678507       2.12358069       1.04788705       0.00000000
Si       0.55361565      -0.88213608      -2.20094381       0.00000000
Si       1.22935743       3.18977748      -0.76059253       0.00000000
Si      -2.43274860      -2.54798406      -0.41940882       0.00000000
Si       3.59153775       0.03479544      -0.05567404       0.00000000
Si      -1.54717533      -1.68598242       2.93984337       0.00000000
Si       1.44260982      -3.45110166       0.32384992       0.00000000
Si       2.16116172      -0.33300018       3.09203739       0.00000000
