10
Lattice="16.28999089631971 0.0 0.0 0.0 16.28999089631971 0.0 0.0 0.0 34.32429715621058" Properties=species:S:1:pos:R:3:initial_magmoms:R:1 pbc="T T T"
Si      -1.35774265       1.35881406      -1.35567320       0.00000000
Si      -1.35700960      -1.35762489       1.35790428       0.00000000
Si       1.35743938       1.35762489       1.35811022       0.00000000
Si       1.35795740      -1.36068741      -1.35605077       0.00000000
Si      -0.00883415       2.71393029      -2.69307213       0.00000000
Si      -2.71439014       2.71269225       0.00058351       0.00000000
Si      -2.71398289      -0.00040725       2.71484748       0.00000000
Si       0.00102902       2.71440270       2.71467585       0.00000000
Si       0.00001181      -2.71472850       2.71464153       0.00000000
Si       2.71476454       0.00068418       2.71467585       0.00000000
