10
Lattice="16.28999089631971 0.0 0.0 0.0 16.28999089631971 0.0 0.0 0.0 34.32429715621058" Properties=species:S:1:pos:R:3:initial_magmoms:R:1 pbc="T T T"
Si      -1.17115326      -1.42674336       1.46413804       0.00000000
Si       0.19394874      -1.46478051      -1.87898172       0.00000000
Si      -1.30111488       2.06601183      -0.22012184       0.00000000
Si       2.16257895       0.38670831       1.20279269       0.00000000
Si      -0.20504223       2.90196576       1.66929448       0.00000000
Si       2.09280888       2.70816363       1.25681917       0.00000000
Si      -0.03619638      -3.49277148       1.13026541       0.00000000
Si       2.45601072      -1.20296763      -2.60689750       0.00000000
Si      -1.05505443      -0.61532217       3.68409752       0.00000000
Si      -0.28792575      -3.69766710      -1.20945161       0.00000000
