10
Lattice="16.28999089631971 0.0 0.0 0.0 16.28999089631971 0.0 0.0 0.0 34.32429715621058" Properties=species:S:1:pos:R:3:initial_magmoms:R:1 pbc="T T T"
Si      -0.48187449      -2.23288659       0.66953011       0.00000000
Si      -1.57604121       0.30281481      -1.77089445       0.00000000
Si      -0.19394874       1.46478051       1.87898172       0.00000000
Si       2.26206198       0.26181288      -0.72791578       0.00000000
Si      -1.36510200       0.03803715       3.34311976       0.00000000
Si       2.00375145       2.34676998      -1.88567497       0.00000000
Si      -0.23014512      -2.02799097       3.00924714       0.00000000
Si      -0.86169213      -1.17937971      -3.50231594       0.00000000
Si       2.81395089      -1.45714050      -2.31496919       0.00000000
Si      -1.28537874       2.18095407      -3.18934683       0.00000000
