10
Lattice="16.28999089631971 0.0 0.0 0.0 16.28999089631971 0.0 0.0 0.0 34.32429715621058" Properties=species:S:1:pos:R:3:initial_magmoms:R:1 pbc="T T T"
Si       1.31157306      -1.33429761       1.40324670       0.00000000
Si       1.31126355       1.28233251      -1.56553348       0.00000000
Si      -1.43856990       1.39028367       1.38623214       0.00000000
Si      -0.75272832      -1.89615600      -1.35962191       0.00000000
Si      -0.35072370      -0.99759960      -3.53622978       0.00000000
Si       2.56402971       2.69130252      -0.04537331       0.00000000
Si       2.65227264      -2.73061125      -0.19425160       0.00000000
Si      -2.73994542      -2.65997781      -0.05122561       0.00000000
Si       2.64798837       0.03212388       2.78038633       0.00000000
Si      -0.06893928      -2.67838551       2.77214849       0.00000000
