10
Lattice="16.28999089631971 0.0 0.0 0.0 16.28999089631971 0.0 0.0 0.0 34.32429715621058" Properties=species:S:1:pos:R:3:initial_magmoms:R:1 pbc="T T T"
Si      -0.22382460       2.25757476       0.51404096       0.00000000
Si      -1.09607265      -0.83595393      -1.88941632       0.00000000
Si       2.29785111      -0.19380213      -0.41247531       0.00000000
Si      -0.53419797      -1.19700549       1.99462035       0.00000000
Si       0.20504223      -2.90196576      -1.66929448       0.00000000
Si       0.18443538       1.94483054       2.83282015       0.00000000
Si       2.36762118      -2.51525745      -0.46650178       0.00000000
Si       0.93105495      -0.21861180       3.52565648       0.00000000
Si      -3.41925471      -0.60025392      -1.25572079       0.00000000
Si      -2.50214400       2.89667381       0.13386483       0.00000000
