10
Lattice="16.28999089631971 0.0 0.0 0.0 16.28999089631971 0.0 0.0 0.0 34.32429715621058" Properties=species:S:1:pos:R:3:initial_magmoms:R:1 pbc="T T T"
Si      -1.34097651      -1.35301096       1.38069562       0.00000000
Si      -1.35684297       1.35974549      -1.35845347       0.00000000
Si       1.35881799      -1.35692056      -1.35944887       0.00000000
Si       1.34862534       1.36640158       1.37561563       0.00000000
Si       2.71686968      -2.70970732      -0.00116703       0.00000000
Si       0.00118838      -2.71324225      -2.71615180       0.00000000
Si      -2.71047681       2.71910526       0.00044622       0.00000000
Si      -2.71389771       0.00174294      -2.71618612       0.00000000
Si      -2.71544526      -2.71553914      -0.00027459       0.00000000
Si       2.71646243       0.00139693      -2.71632342       0.00000000
