10
Lattice="16.28999089631971 0.0 0.0 0.0 16.28999089631971 0.0 0.0 0.0 34.32429715621058" Properties=species:S:1:pos:R:3:initial_magmoms:R:1 pbc="T T T"
Si      -1.34312679      -1.34439741       1.36990406       0.00000000
Si       1.36808307       1.37091753       1.36966379       0.00000000
Si       1.39483125      -1.38377034      -1.33991147       0.00000000
Si      -1.41675759       1.27969353      -1.43278277       0.00000000
Si       0.52128000       1.94694822      -2.60112518       0.00000000
Si       2.34395181       0.23547195      -2.71611202       0.00000000
Si      -2.71570590      -2.69918784      -0.01429951       0.00000000
Si       0.01081656      -2.70233181       2.72568023       0.00000000
Si      -2.70345582       0.01244556       2.72533699       0.00000000
Si      -2.70327663       2.73336426      -0.01648940       0.00000000
