10
Lattice="16.28999089631971 0.0 0.0 0.0 16.28999089631971 0.0 0.0 0.0 34.32429715621058" Properties=species:S:1:pos:R:3:initial_magmoms:R:1 pbc="T T T"
Si      -1.36834371      -1.35480672       1.34475807       0.00000000
Si       1.35521301      -1.35674523      -1.35653131       0.00000000
Si      -1.35772263       1.35558864      -1.35718347       0.00000000
Si       1.36007395       1.34928441       1.36408266       0.00000000
Si      -2.71239903      -2.71318095       0.00298622       0.00000000
Si       2.71335104       2.71358820       0.00024027       0.00000000
Si      -2.71340901       2.71394658       0.00645297       0.00000000
Si       2.71369313       0.00027693      -2.71381775       0.00000000
Si      -0.00004239       2.71399545      -2.71381775       0.00000000
Si       2.71367684      -2.71463076       0.00528594       0.00000000
