10
Lattice="16.28999089631971 0.0 0.0 0.0 16.28999089631971 0.0 0.0 0.0 34.32429715621058" Properties=species:S:1:pos:R:3:initial_magmoms:R:1 pbc="T T T"
Si       0.78561783      -1.18122048      -1.92535388       0.00000000
Si      -2.12967315      -0.18270864       1.10908731       0.00000000
Si       1.03361679      -1.65794733       1.48130020       0.00000000
Si       0.09612729       2.37959433      -0.71044470       0.00000000
Si      -0.46390662       0.05848110      -3.56962593       0.00000000
Si      -0.67911381      -3.31369551       1.56134450       0.00000000
Si       3.11553973      -0.76458744      -2.08582006       0.00000000
Si      -3.72096180      -1.10148093      -0.35738478       0.00000000
Si       1.09835325      -3.47703534      -1.40534048       0.00000000
Si      -2.29850271      -2.03809077       2.57178373       0.00000000
