10
Lattice="16.28999089631971 0.0 0.0 0.0 16.28999089631971 0.0 0.0 0.0 34.32429715621058" Properties=species:S:1:pos:R:3:initial_magmoms:R:1 pbc="T T T"
Si      -2.08254618       0.42394725      -1.00800220       0.00000000
Si       0.83719197      -2.19848211      -0.23319941       0.00000000
Si      -0.73922391       0.14641452       2.25074840       0.00000000
Si       1.91699091       1.40304141      -0.11536403       0.00000000
Si       0.57935385       3.08967543       1.06707435       0.00000000
Si       3.01938540       0.62679033       1.81424606       0.00000000
Si       1.35306369      -0.03759732       3.32187301       0.00000000
Si      -1.14657165       2.48481144       2.48542375       0.00000000
Si      -1.00662426      -3.55364721      -0.74974604       0.00000000
Si      -3.77714601      -0.77051700       0.10547862       0.00000000
