10
Lattice="16.28999089631971 0.0 0.0 0.0 16.28999089631971 0.0 0.0 0.0 34.32429715621058" Properties=species:S:1:pos:R:3:initial_magmoms:R:1 pbc="T T T"
Si      -1.20059581       1.41711597       1.55217991       0.00000000
Si       2.34924443       0.55395774       0.32937614       0.00000000
Si      -0.37699621      -2.34396810       0.83765062       0.00000000
Si       0.23086025       1.01866257      -2.45315889       0.00000000
Si       2.14346915      -0.48092967      -2.58300778       0.00000000
Si       2.71813148      -1.32168915       1.80219823       0.00000000
Si       0.77146019      -2.15023113       2.89357419       0.00000000
Si      -1.22782617       3.66407712       0.56127122       0.00000000
Si       2.50069256       2.64031578       1.52056721       0.00000000
Si      -2.50510131      -1.64867832      -2.60329345       0.00000000
