10
Lattice="16.28999089631971 0.0 0.0 0.0 16.28999089631971 0.0 0.0 0.0 34.32429715621058" Properties=species:S:1:pos:R:3:initial_magmoms:R:1 pbc="T T T"
Si      -1.26545607       1.36256076      -1.43276561       0.00000000
Si       0.96915726       1.64331891       1.39137049       0.00000000
Si       1.45586988      -1.36730115      -1.39545508       0.00000000
Si      -1.79874180      -1.06785837       1.38172535       0.00000000
Si       0.76124799       0.36339732       3.44612704       0.00000000
Si      -2.48793912       2.76814341       0.04565134       0.00000000
Si      -3.51345978       0.94762188       1.13270244       0.00000000
Si      -2.62122390       0.00013032      -2.78967449       0.00000000
Si       2.78256006       2.63101419       0.02818026       0.00000000
Si      -2.65621482      -2.77255800      -0.00281459       0.00000000
