10
Lattice="16.28999089631971 0.0 0.0 0.0 16.28999089631971 0.0 0.0 0.0 34.32429715621058" Properties=species:S:1:pos:R:3:initial_magmoms:R:1 pbc="T T T"
Si      -1.79463672      -1.25343405       0.76649631       0.00000000
Si       2.30099508      -0.27864045       0.26069318       0.00000000
Si      -0.03315015      -0.92185110      -2.22442164       0.00000000
Si      -0.82236807       2.41797357       0.47587232       0.00000000
Si       2.87639046       0.65075292      -1.87832956       0.00000000
Si      -3.09055509      -1.17146277      -1.35553590       0.00000000
Si      -0.20691558       3.19341015      -1.65316205       0.00000000
Si      -1.98798273      -0.10526598      -3.16401548       0.00000000
Si      -1.86815349       0.07061715       3.24124519       0.00000000
Si      -1.05617844      -3.62804364       0.68861443       0.00000000
