10
Lattice="16.28999089631971 0.0 0.0 0.0 16.28999089631971 0.0 0.0 0.0 34.32429715621058" Properties=species:S:1:pos:R:3:initial_magmoms:R:1 pbc="T T T"
Si      -1.35643246       1.35498591      -1.35646266       0.00000000
Si      -1.35637708      -1.35671917       1.35759536       0.00000000
Si       1.35840681       1.35757602       1.35762968       0.00000000
Si       1.35979146      -1.35614250      -1.35824752       0.00000000
Si       2.71006956       0.00042354      -2.69334329       0.00000000
Si      -2.68937216       0.00211770      -2.71957737       0.00000000
Si      -2.71437805       0.00094482       2.71422964       0.00000000
Si       0.00122175      -2.71480872       2.71429829       0.00000000
Si      -2.71438987       2.71567332      -0.00041189       0.00000000
Si       2.71722087      -2.71286552      -0.00082378       0.00000000
