10
Lattice="16.28999089631971 0.0 0.0 0.0 16.28999089631971 0.0 0.0 0.0 34.32429715621058" Properties=species:S:1:pos:R:3:initial_magmoms:R:1 pbc="T T T"
Si       1.35608880      -1.35711990       1.36291563       0.00000000
Si      -1.36244673       1.36148562       1.36456320       0.00000000
Si       1.36249031       1.36917450      -1.36917638       0.00000000
Si      -1.38013767      -1.35698958      -1.37773000       0.00000000
Si       2.71349276      -2.71155195       0.00645297       0.00000000
Si      -2.71928970      -2.70941796       0.00394730       0.00000000
Si      -2.71578735       2.71419093       0.01005702       0.00000000
Si       2.71261636       2.72003904       0.00659027       0.00000000
Si       2.71274505       0.00192222       2.72075126       0.00000000
Si      -0.00289962      -2.71340901       2.72081991       0.00000000
