10
Lattice="16.28999089631971 0.0 0.0 0.0 16.28999089631971 0.0 0.0 0.0 34.32429715621058" Properties=species:S:1:pos:R:3:initial_magmoms:R:1 pbc="T T T"
Si       1.34097651       1.35301096      -1.38069562       0.00000000
Si      -1.37446875      -1.36252818      -1.38097022       0.00000000
Si      -1.33887510       1.31558040       1.49142587       0.00000000
Si       1.31496138      -1.44187677       1.43921858       0.00000000
Si      -2.12765319      -0.48127176       2.92072473       0.00000000
Si      -0.49844142      -2.42957205       2.80240881       0.00000000
Si       2.68960185       2.71941255      -0.00508000       0.00000000
Si      -2.73843045       2.68752813      -0.00051486       0.00000000
Si       2.68968492      -2.74134636      -0.00624703       0.00000000
Si       2.69979450      -0.00390960      -2.74014450       0.00000000
