10
Lattice="16.28999089631971 0.0 0.0 0.0 16.28999089631971 0.0 0.0 0.0 34.32429715621058" Properties=species:S:1:pos:R:3:initial_magmoms:R:1 pbc="T T T"
Si      -0.96915726      -1.64331891      -1.39137049       0.00000000
Si      -0.20790927      -1.27992159       2.05475655       0.00000000
Si       1.81340280       0.98769528      -1.36319022       0.00000000
Si      -1.62921177       1.94830029       0.11831592       0.00000000
Si      -2.23461333      -0.28075815      -2.82413610       0.00000000
Si      -1.89281655       0.17474283       3.13267738       0.00000000
Si       0.49844142       2.42957205      -2.80240881       0.00000000
Si      -2.76789906      -2.71117728      -0.00964513       0.00000000
Si      -3.45709638       1.12482450      -1.34571915       0.00000000
Si       2.10523068      -1.01180448       3.13006873       0.00000000
