10
Lattice="16.28999089631971 0.0 0.0 0.0 16.28999089631971 0.0 0.0 0.0 34.32429715621058" Properties=species:S:1:pos:R:3:initial_magmoms:R:1 pbc="T T T"
Si      -0.73770894      -1.53767826       1.64114854       0.00000000
Si       2.28543813      -0.56172807      -0.25688318       0.00000000
Si      -0.24441516       2.36375135       0.26872507       0.00000000
Si      -1.12645350      -0.99593802      -2.09628897       0.00000000
Si       0.04311963      -3.55926726       0.56744960       0.00000000
Si       0.49394538      -0.83396655       3.49016513       0.00000000
Si       1.85554503       3.07018349      -0.55674041       0.00000000
Si       2.26189908      -2.91661047       0.08752701       0.00000000
Si      -3.34966383      -0.20437434      -1.55506315       0.00000000
Si      -0.97614567      -3.31276698      -1.51099073       0.00000000
