10
Lattice="16.28999089631971 0.0 0.0 0.0 16.28999089631971 0.0 0.0 0.0 34.32429715621058" Properties=species:S:1:pos:R:3:initial_magmoms:R:1 pbc="T T T"
Si      -0.89961592      -2.17860831       0.04465594       0.00000000
Si       1.79803156      -0.29712960       1.49678046       0.00000000
Si       1.37761924      -0.20515626      -1.94660063       0.00000000
Si      -1.43150071       1.55639547       1.88567497       0.00000000
Si       0.77024333       1.85297121      -2.82959367       0.00000000
Si      -0.82517062       3.11810148      -1.57826639       0.00000000
Si      -2.51129965      -2.04512805       1.76783959       0.00000000
Si       0.89377691      -1.18539072       3.38667732       0.00000000
Si      -1.00354612       3.59489349       0.71353389       0.00000000
Si       3.65580832      -0.13611924      -1.22239188       0.00000000
