10
Lattice="16.28999089631971 0.0 0.0 0.0 16.28999089631971 0.0 0.0 0.0 34.32429715621058" Properties=species:S:1:pos:R:3:initial_magmoms:R:1 pbc="T T T"
Si      -1.71930772      -0.86102424      -1.43266264       0.00000000
Si       1.91260890      -1.49959224      -0.12984889       0.00000000
Si       0.87250869       1.83058875      -1.52214613       0.00000000
Si      -0.23086025      -1.01866257       2.45315889       0.00000000
Si       2.11838418      -0.46470483       2.78253503       0.00000000
Si      -0.36250300      -2.06861823      -2.93720040       0.00000000
Si       0.97976205      -3.33728343      -1.44536264       0.00000000
Si       0.93139704       2.86534584       2.34153621       0.00000000
Si       2.36620395       0.65059002      -2.92782986       0.00000000
Si      -2.73596156      -2.66734089      -0.15013456       0.00000000
