10
Lattice="16.28999089631971 0.0 0.0 0.0 16.28999089631971 0.0 0.0 0.0 34.32429715621058" Properties=species:S:1:pos:R:3:initial_magmoms:R:1 pbc="T T T"
Si      -0.54219636       2.22687558       0.30164209       0.00000000
Si      -2.03524328      -1.13314869      -0.06226431       0.00000000
Si       0.70467282       0.00213399      -2.25630893       0.00000000
Si       1.36751292      -0.84137850       1.79996715       0.00000000
Si       2.88355806       0.87566895      -1.93952982       0.00000000
Si       0.85032171      -3.12223914       1.54493748       0.00000000
Si      -1.42786737      -3.19127616       0.82072873       0.00000000
Si      -2.85001369       2.23914195       0.48108962       0.00000000
Si       0.65401092       2.92229568       2.19953652       0.00000000
Si      -3.63065723       0.13198158       1.18906297       0.00000000
