10
Lattice="16.28999089631971 0.0 0.0 0.0 16.28999089631971 0.0 0.0 0.0 34.32429715621058" Properties=species:S:1:pos:R:3:initial_magmoms:R:1 pbc="T T T"
Si       0.60737591      -2.05812747       0.88299304       0.00000000
Si       2.03524328       1.13314869       0.06226431       0.00000000
Si      -0.96137227      -0.08791713      -2.16243193       0.00000000
Si      -1.59541395       1.26513027       1.25132728       0.00000000
Si      -0.77024333      -1.85297121       2.82959367       0.00000000
Si      -0.81477041       3.37229064       0.54335393       0.00000000
Si      -3.15718512      -0.70481943      -1.50158587       0.00000000
Si       2.73991610       1.13528268      -2.19404462       0.00000000
Si       1.49304692       3.36002427       0.36390640       0.00000000
Si      -3.70907403       1.01413395       0.08546755       0.00000000
