10
Lattice="16.28999089631971 0.0 0.0 0.0 16.28999089631971 0.0 0.0 0.0 34.32429715621058" Properties=species:S:1:pos:R:3:initial_magmoms:R:1 pbc="T T T"
Si      -1.80330886      -1.31388624      -0.69057092       0.00000000
Si      -0.80575390       2.18139390      -0.22757022       0.00000000
Si       1.48688604      -0.74930742      -1.78146634       0.00000000
Si       0.59362389      -0.21853035       2.35941918       0.00000000
Si       2.86233219      -1.36490652       0.13084429       0.00000000
Si       1.13709087      -3.14950860       0.51273664       0.00000000
Si      -0.58042573      -3.27942135      -1.11917866       0.00000000
Si       0.44429346       3.23683929       1.45555696       0.00000000
Si       3.59785827       0.96699069       0.20453860       0.00000000
Si      -3.05972531       2.11673889       0.32669884       0.00000000
