10
Lattice="16.28999089631971 0.0 0.0 0.0 16.28999089631971 0.0 0.0 0.0 34.32429715621058" Properties=species:S:1:pos:R:3:initial_magmoms:R:1 pbc="T T T"
Si      -1.45558155      -1.43044119       1.22977161       0.00000000
Si      -0.59362389       0.21853035      -2.35941918       0.00000000
Si       2.18294145      -1.02574872       0.46313800       0.00000000
Si      -0.44846370       2.24340993       1.11976217       0.00000000
Si       2.26870830      -1.14637617      -2.22857489       0.00000000
Si       0.54346698      -2.93097825      -1.84668254       0.00000000
Si      -0.62543826      -0.64096263       3.43155537       0.00000000
Si      -0.14933043       3.45536964      -0.90386222       0.00000000
Si      -1.06699011      -3.42554265      -0.10719484       0.00000000
Si      -1.39937779       2.39992425      -2.58698940       0.00000000
