10
Lattice="16.28999089631971 0.0 0.0 0.0 16.28999089631971 0.0 0.0 0.0 34.32429715621058" Properties=species:S:1:pos:R:3:initial_magmoms:R:1 pbc="T T T"
Si       1.35012605       1.35086454       1.37576665       0.00000000
Si      -1.36249031      -1.36917450       1.36917638       0.00000000
Si      -1.36555283       1.41351588      -1.32729042       0.00000000
Si       1.41056195      -1.36611198      -1.37672430       0.00000000
Si       2.69445993       2.69711901      -0.01237735       0.00000000
Si      -0.00841664       2.70350469       2.73216066       0.00000000
Si       2.70749193      -0.00988803       2.73133688       0.00000000
Si       2.71273731      -2.72758131       0.01693562       0.00000000
Si      -0.00640151      -2.72629440       2.73209201       0.00000000
Si      -2.72493704      -0.00768888       2.73373958       0.00000000
