10
Lattice="16.28999089631971 0.0 0.0 0.0 16.28999089631971 0.0 0.0 0.0 34.32429715621058" Properties=species:S:1:pos:R:3:initial_magmoms:R:1 pbc="T T T"
Si       1.35777150      -1.35413298       1.35460914       0.00000000
Si      -1.35847197      -1.35557438      -1.35838482       0.00000000
Si       1.35664749       1.35959272      -1.35855644       0.00000000
Si      -1.35933534       1.36068415       1.36068455       0.00000000
Si       2.70777267       0.00721321       2.71381775       0.00000000
Si      -0.00091224      -2.72703789       2.69607208       0.00000000
Si       2.71295289      -2.71045467      -0.00123568       0.00000000
Si      -0.00109143      -2.71260495      -2.71536234       0.00000000
Si       2.71350675       0.00307881      -2.71529369       0.00000000
Si      -2.71611641      -2.71389186      -0.00151027       0.00000000
