10
Lattice="16.28999089631971 0.0 0.0 0.0 16.28999089631971 0.0 0.0 0.0 34.32429715621058" Properties=species:S:1:pos:R:3:initial_magmoms:R:1 pbc="T T T"
Si       0.50911137       1.21342581       1.98222927       0.00000000
Si       0.80589888       1.89623745      -1.25829511       0.00000000
Si      -1.97963315      -0.87369786      -1.13949865       0.00000000
Si       1.48879197      -1.98145044       0.25170021       0.00000000
Si      -1.74200047       1.61626122       2.41135187       0.00000000
Si       2.12040414       0.55112328      -2.62127939       0.00000000
Si      -0.60490960      -2.17316745      -2.58496426       0.00000000
Si       1.69349211      -0.47996856       3.03653497       0.00000000
Si       3.29812227      -0.95746104      -1.26327214       0.00000000
Si       2.67768504       2.72667463       0.00700216       0.00000000
