10
Lattice="16.28999089631971 0.0 0.0 0.0 16.28999089631971 0.0 0.0 0.0 34.32429715621058" Properties=species:S:1:pos:R:3:initial_magmoms:R:1 pbc="T T T"
Si      -1.18438074       1.69339437      -1.05430570       0.00000000
Si       0.13126482       0.32316102       2.34912189       0.00000000
Si       2.17083798       0.20735541      -0.99101166       0.00000000
Si      -0.99121392      -2.17329777      -0.35566857       0.00000000
Si      -0.20470014      -1.50148188      -2.78483476       0.00000000
Si      -1.69349211       0.47996856      -3.03653497       0.00000000
Si       2.83467177       2.26520595       0.16407023       0.00000000
Si       0.34722135      -3.41699040       1.27652132       0.00000000
Si       2.30355261      -0.49756176       2.83436475       0.00000000
Si       3.01826007      -2.03647806      -0.76965415       0.00000000
