10
Lattice="16.28999089631971 0.0 0.0 0.0 16.28999089631971 0.0 0.0 0.0 34.33025523377368" Properties=species:S:1:pos:R:3:initial_magmoms:R:1 pbc="T T T"
Si       2.11493070      -0.09089820       1.02197794       0.00000000
Si      -1.65118698      -0.72049041       1.51949228       0.00000000
Si       0.51598575      -1.70214210      -1.54771176       0.00000000
Si      -0.32298183       2.21649885      -0.86361238       0.00000000
Si      -3.41459639       0.57977739       0.72968998       0.00000000
Si       1.57441221       3.31101159      -0.06821426       0.00000000
Si      -3.43882619      -0.05637969      -1.64397385       0.00000000
Si       2.72854242      -1.39764942      -2.29305635       0.00000000
Si       3.48164541      -1.60161651      -0.11037183       0.00000000
Si       3.36106683       1.82806380       0.29530902       0.00000000
