10
Lattice="16.28999089631971 0.0 0.0 0.0 16.28999089631971 0.0 0.0 0.0 34.33025523377368" Properties=species:S:1:pos:R:3:initial_magmoms:R:1 pbc="T T T"
Si      -0.39728709       2.27235793       0.14710523       0.00000000
Si       1.76340941      -1.30026780       0.78980229       0.00000000
Si      -1.54778463      -0.72215199       1.66735277       0.00000000
Si      -0.02422980      -0.63615708      -2.37366383       0.00000000
Si       0.65469572      -3.31921782       0.12688469       0.00000000
Si      -2.34237825       2.22802144      -1.19750863       0.00000000
Si      -2.12179536       0.42686316      -2.76993819       0.00000000
Si       3.41459639      -0.57977739      -0.72968998       0.00000000
Si      -1.26595134      -3.07320624       1.51921763       0.00000000
Si       1.48055637       3.24524886      -0.87868337       0.00000000
