10
Lattice="16.28999089631971 0.0 0.0 0.0 16.28999089631971 0.0 0.0 0.0 34.33025523377368" Properties=species:S:1:pos:R:3:initial_magmoms:R:1 pbc="T T T"
Si       1.66144968      -1.59036012       0.37433731       0.00000000
Si      -1.82857368      -0.63601047       1.31852285       0.00000000
Si       0.16467561       2.06382897       1.15411517       0.00000000
Si      -0.41963040       0.02256165      -2.36436033       0.00000000
Si      -3.24008819       1.08607059       0.78430945       0.00000000
Si       3.41793522      -0.35367219      -0.69893006       0.00000000
Si       0.81697608      -3.64814550      -0.43482726       0.00000000
Si      -2.02842656       3.06891433       1.11182027       0.00000000
Si      -2.95279775      -2.48231907       0.52226646       0.00000000
Si       1.64481759      -2.33714259       2.70069403       0.00000000
