10
Lattice="16.28999089631971 0.0 0.0 0.0 16.28999089631971 0.0 0.0 0.0 34.33025523377368" Properties=species:S:1:pos:R:3:initial_magmoms:R:1 pbc="T T T"
Si       1.03560417       1.61731518      -1.36136844       0.00000000
Si      -1.42071606       1.25797407       1.45848395       0.00000000
Si       1.29912750      -1.42074442       1.46081840       0.00000000
Si      -0.88303203      -1.66108708      -1.61180780       0.00000000
Si      -2.59704954      -2.68825303      -0.00822897       0.00000000
Si       2.67074550       2.69771685       0.02639311       0.00000000
Si      -0.06336810       2.63772078       2.82350715       0.00000000
Si       2.75085972      -2.72855449       0.16769996       0.00000000
Si       2.65795785      -0.08175625       2.83335994       0.00000000
Si      -1.23857757      -0.37696689      -3.66410593       0.00000000
