10
Lattice="16.28999089631971 0.0 0.0 0.0 16.28999089631971 0.0 0.0 0.0 34.33025523377368" Properties=species:S:1:pos:R:3:initial_magmoms:R:1 pbc="T T T"
Si      -1.35695700      -1.35705800       1.35638914       0.00000000
Si       1.35648459      -1.35763955      -1.35693843       0.00000000
Si      -1.35731538       1.35749457      -1.35786534       0.00000000
Si       1.35933534       1.35874890       1.35752204       0.00000000
Si       0.00016290      -2.71392808      -2.71246931       0.00000000
Si       2.71218726      -0.00125433       2.71669194       0.00000000
Si      -2.71490769      -2.71466356       0.00037763       0.00000000
Si       2.71508688      -2.71497290       0.00000000       0.00000000
Si       2.71520091       2.71495656      -0.00017165       0.00000000
Si       0.00039096       2.71682991      -2.71356788       0.00000000
