10
Lattice="16.28999089631971 0.0 0.0 0.0 16.28999089631971 0.0 0.0 0.0 34.33025523377368" Properties=species:S:1:pos:R:3:initial_magmoms:R:1 pbc="T T T"
Si       1.57859874      -1.47634641       0.79261738       0.00000000
Si      -1.70095293      -1.45398024      -0.62985754       0.00000000
Si      -1.20146895       0.92854629       1.78582655       0.00000000
Si       0.43175016       1.08545157      -2.04059151       0.00000000
Si       0.11797218      -2.71987451       2.27922125       0.00000000
Si      -2.07673065      -2.46880163       1.49003690       0.00000000
Si      -0.84157398      -2.16792533      -2.72352366       0.00000000
Si      -2.30780430       2.74571208       0.73799791       0.00000000
Si      -3.48633693      -0.05054787      -1.23678247       0.00000000
Si       0.32739642       1.26721539       3.52987315       0.00000000
