10
Lattice="16.28999089631971 0.0 0.0 0.0 16.28999089631971 0.0 0.0 0.0 34.33025523377368" Properties=species:S:1:pos:R:3:initial_magmoms:R:1 pbc="T T T"
Si      -1.03560417      -1.61731518       1.36136844       0.00000000
Si      -0.74213982       2.25157122      -0.29630460       0.00000000
Si       1.63514133       1.08040167       1.38776156       0.00000000
Si      -0.35733744      -0.44815419      -2.38289868       0.00000000
Si       0.66570714       2.85495282      -2.21038905       0.00000000
Si       0.27743499       2.39143716       2.82422263       0.00000000
Si      -2.45632023      -0.35934111       2.81985239       0.00000000
Si      -2.27418174      -1.99428207      -2.30273749       0.00000000
Si      -1.91863620      -3.27840227      -0.25043935       0.00000000
Si      -2.72609892       2.21086251      -1.53188551       0.00000000
