10
Lattice="16.28999089631971 0.0 0.0 0.0 16.28999089631971 0.0 0.0 0.0 34.33025523377368" Properties=species:S:1:pos:R:3:initial_magmoms:R:1 pbc="T T T"
Si      -1.94447165      -0.19538226      -1.22545348       0.00000000
Si      -0.74822739       0.91579122       2.07698160       0.00000000
Si       0.85568112      -2.01568292       0.96653455       0.00000000
Si       1.35975888       1.61095068      -1.37609472       0.00000000
Si      -0.23872995      -0.94288475      -2.56577605       0.00000000
Si       1.25019234       3.27202569       0.54337958       0.00000000
Si       3.54903714       0.00780291      -0.57743522       0.00000000
Si       2.91996621      -2.22655697      -0.09327536       0.00000000
Si       1.02978864       2.37452814       2.68376920       0.00000000
Si      -2.94033590       1.74935052       1.90996482       0.00000000
