10
Lattice="16.28999089631971 0.0 0.0 0.0 16.28999089631971 0.0 0.0 0.0 34.33025523377368" Properties=species:S:1:pos:R:3:initial_magmoms:R:1 pbc="T T T"
Si       1.35586557       1.35620766      -1.35769369       0.00000000
Si       1.35285192      -1.36000323       1.35916989       0.00000000
Si      -1.35933534      -1.35874890      -1.35752204       0.00000000
Si      -1.36438524       1.35672894       1.36057744       0.00000000
Si       2.71407690       2.71259451       0.00078960       0.00000000
Si       2.71244790      -0.00004887      -2.71511274       0.00000000
Si      -0.00114030       2.71347417      -2.71538739       0.00000000
Si       2.71417464      -2.71581016      -0.00010299       0.00000000
Si      -2.71472850       2.71539639      -0.00140754       0.00000000
Si      -0.00285075      -2.71638845      -2.71446047       0.00000000
