10
Lattice="16.28999089631971 0.0 0.0 0.0 16.28999089631971 0.0 0.0 0.0 34.33025523377368" Properties=species:S:1:pos:R:3:initial_magmoms:R:1 pbc="T T T"
Si       0.69421464       1.74568527       1.51585327       0.00000000
Si       1.27514862       1.36412460      -1.57054139       0.00000000
Si       1.22334642      -1.06422570       1.84940621       0.00000000
Si      -1.42835607      -1.38948813      -1.48766811       0.00000000
Si       2.23533009      -2.49166953       0.11147040       0.00000000
Si       2.16096624       3.02710554      -0.06059293       0.00000000
Si       2.46412314      -0.19706013      -2.92977995       0.00000000
Si      -0.26909451       2.52633465      -2.91203120       0.00000000
Si      -2.74180248      -2.79157820      -0.11826780       0.00000000
Si       0.10026495      -2.94692290       2.87509182       0.00000000
