10
Lattice="16.28999089631971 0.0 0.0 0.0 16.28999089631971 0.0 0.0 0.0 34.33025523377368" Properties=species:S:1:pos:R:3:initial_magmoms:R:1 pbc="T T T"
Si       0.34608105       1.05725358       2.06108669       0.00000000
Si       1.69782525      -1.08722718      -1.33167134       0.00000000
Si      -0.52913178       1.90078236      -1.41965984       0.00000000
Si      -1.30326516      -1.79056422       1.04731368       0.00000000
Si       0.55897506      -3.18052476       1.59934449       0.00000000
Si      -1.78325001       2.16243234       2.39034835       0.00000000
Si       0.23768739      -1.63818756      -3.44566098       0.00000000
Si       2.11488183      -3.18560724      -0.19118530       0.00000000
Si      -2.41295625      -2.95681419      -0.65086767       0.00000000
Si       2.18789361       2.58409899       1.93131825       0.00000000
