10
Lattice="16.28999089631971 0.0 0.0 0.0 16.28999089631971 0.0 0.0 0.0 34.33025523377368" Properties=species:S:1:pos:R:3:initial_magmoms:R:1 pbc="T T T"
Si      -1.39217598      -1.66244337       0.82138615       0.00000000
Si       0.99929376      -0.20621511       2.08504922       0.00000000
Si       1.53961677      -1.04958099      -1.45718283       0.00000000
Si      -0.98722287       2.15691003      -0.33818753       0.00000000
Si       1.52893053       2.10593862       1.91432476       0.00000000
Si       3.42968031      -0.43005600      -0.22829632       0.00000000
Si       3.06281322       1.84870323       0.02825382       0.00000000
Si      -2.92104135      -2.00111247      -0.92266046       0.00000000
Si      -2.39251230      -0.85030542       2.76355276       0.00000000
Si      -2.79466353       1.84003695      -1.80422757       0.00000000
