10
Lattice="16.28999089631971 0.0 0.0 0.0 16.28999089631971 0.0 0.0 0.0 34.33025523377368" Properties=species:S:1:pos:R:3:initial_magmoms:R:1 pbc="T T T"
Si       1.39217598       1.66244337      -0.82138615       0.00000000
Si      -1.00033632       0.81213795       1.94216661       0.00000000
Si      -1.52886537      -0.33866910      -1.74404660       0.00000000
Si       1.36842516      -1.84687875       1.09115344       0.00000000
Si       2.39146974       1.45622826       1.26366307       0.00000000
Si       0.98362278       0.85284666       3.17774752       0.00000000
Si      -0.54841914      -3.39300663       1.17131463       0.00000000
Si      -3.14926425      -1.84694391      -0.83092996       0.00000000
Si       2.93179275       0.61286238      -2.27856897       0.00000000
Si      -0.32739642      -1.26721539      -3.52987315       0.00000000
