10
Lattice="16.28999089631971 0.0 0.0 0.0 16.28999089631971 0.0 0.0 0.0 34.33025523377368" Properties=species:S:1:pos:R:3:initial_magmoms:R:1 pbc="T T T"
Si       1.35119034       1.34917038      -1.37973373       0.00000000
Si      -1.35843939      -1.36686132      -1.37650668       0.00000000
Si       1.38061008      -1.18789938       1.56086026       0.00000000
Si      -1.23292494       1.36432008       1.54242490       0.00000000
Si      -0.45134703      -2.04157683       2.95470373       0.00000000
Si      -2.22485562      -0.36118188       2.89641092       0.00000000
Si       0.69774957       2.30672916       2.78161048       0.00000000
Si      -2.70350632       2.69601129       0.01091703       0.00000000
Si       2.70145215      -2.70350469       0.00662574       0.00000000
Si       2.45747682       0.49218606       2.89720052       0.00000000
