10
Lattice="16.28999089631971 0.0 0.0 0.0 16.28999089631971 0.0 0.0 0.0 34.33025523377368" Properties=species:S:1:pos:R:3:initial_magmoms:R:1 pbc="T T T"
Si      -1.15265550       1.79062938      -0.77129828       0.00000000
Si      -1.12020582      -1.92841739      -0.41264990       0.00000000
Si       1.70574170      -0.74750249      -1.34032257       0.00000000
Si       1.94447165       0.19538226       1.22545348       0.00000000
Si      -1.06555287       3.13554807       1.14941192       0.00000000
Si      -3.39205809       1.03549014      -0.53400742       0.00000000
Si       1.19624426       1.11117348       3.30243508       0.00000000
Si       0.44872059      -3.67434701      -0.26183700       0.00000000
Si      -2.14158882      -1.72298420      -2.50096049       0.00000000
Si       3.30423053       1.80633294      -0.15064124       0.00000000
