10
Lattice="16.28999089631971 0.0 0.0 0.0 16.28999089631971 0.0 0.0 0.0 34.33025523377368" Properties=species:S:1:pos:R:3:initial_magmoms:R:1 pbc="T T T"
Si      -1.58162868      -0.83251674       1.50442129       0.00000000
Si       1.15447230       1.44326142       1.48540231       0.00000000
Si      -1.31896872       1.38733785      -1.40925776       0.00000000
Si       1.38528531      -1.32489828      -1.40764424       0.00000000
Si      -2.65849542      -2.51260218       0.16808102       0.00000000
Si       2.59634907       2.66144391       0.00295240       0.00000000
Si      -3.34135593       0.98202636       1.38883125       0.00000000
Si      -2.59651197       2.77964415       0.01088270       0.00000000
Si       2.77350282      -2.61045621      -0.02204004       0.00000000
Si       0.02712285      -2.68946271      -2.76938891       0.00000000
