10
Lattice="16.28999089631971 0.0 0.0 0.0 16.28999089631971 0.0 0.0 0.0 34.33025523377368" Properties=species:S:1:pos:R:3:initial_magmoms:R:1 pbc="T T T"
Si      -1.10397330       1.89224640       0.82392659       0.00000000
Si      -1.02433149      -0.51803829      -2.04560373       0.00000000
Si       2.33538327       0.36784449       0.00480624       0.00000000
Si      -0.02081862      -1.56338388       1.78936256       0.00000000
Si      -0.35087031       1.68827931       3.00661110       0.00000000
Si       3.28518801      -1.60573788      -0.84500537       0.00000000
Si       3.00716658       0.21543525       2.25601398       0.00000000
Si      -2.97717669       0.82316628      -2.29202644       0.00000000
Si      -1.13520123      -0.59204376       3.63118179       0.00000000
Si      -1.78157214      -2.73351087      -2.11237612       0.00000000
