10
Lattice="16.28999089631971 0.0 0.0 0.0 16.28999089631971 0.0 0.0 0.0 34.33025523377368" Properties=species:S:1:pos:R:3:initial_magmoms:R:1 pbc="T T T"
Si       0.15526162      -1.27024859       1.94793410       0.00000000
Si      -2.19210850       0.83355930      -0.16701679       0.00000000
Si       1.77801603       1.45873692       0.60678760       0.00000000
Si       0.74822739      -0.91579122      -2.07698160       0.00000000
Si       1.99841973       2.35623447      -1.53360202       0.00000000
Si       1.60390851      -2.93147414      -1.11044706       0.00000000
Si      -2.02117753       2.63125854       1.30544302       0.00000000
Si       1.76631981      -2.87877599       1.23331511       0.00000000
Si       1.01895090       0.33311421       3.51545443       0.00000000
Si      -1.19624426      -1.11117348      -3.30243508       0.00000000
