10
Lattice="16.28999089631971 0.0 0.0 0.0 16.28999089631971 0.0 0.0 0.0 34.33025523377368" Properties=species:S:1:pos:R:3:initial_magmoms:R:1 pbc="T T T"
Si      -1.34732557       1.34824185       1.35985650       0.00000000
Si       1.36808307       1.34091135      -1.36267502       0.00000000
Si       1.36870209      -1.36669842       1.35388303       0.00000000
Si      -1.36106927      -1.36902789      -1.39662422       0.00000000
Si       2.12968944      -0.61911774      -2.50446561       0.00000000
Si       0.37686915      -2.46192073      -2.70185439       0.00000000
Si      -2.70297431       2.69881317      -0.00051495       0.00000000
Si       0.00882592       2.70405855       2.71394551       0.00000000
Si      -2.70517346      -0.00886176       2.71442614       0.00000000
Si       2.73163752       2.69594613      -0.00411963       0.00000000
