10
Lattice="16.28999089631971 0.0 0.0 0.0 16.28999089631971 0.0 0.0 0.0 34.33025523377368" Properties=species:S:1:pos:R:3:initial_magmoms:R:1 pbc="T T T"
Si       1.52397837       0.64325693       1.63487633       0.00000000
Si      -1.78665462       1.48294779      -0.36352328       0.00000000
Si       1.29987684      -0.04000824      -2.00567762       0.00000000
Si      -1.24613613      -1.91896200       0.72666892       0.00000000
Si       0.12057858      -3.42968031      -0.40568085       0.00000000
Si      -0.01469358      -1.16732511      -3.60742524       0.00000000
Si      -3.36106683      -1.82806380      -0.29530902       0.00000000
Si      -2.64603357       2.19689288       1.73014284       0.00000000
Si       3.51829791       1.44168196       0.64564947       0.00000000
Si       2.41885323      -3.02317965      -0.24861985       0.00000000
