10
Lattice="16.28999089631971 0.0 0.0 0.0 16.28999089631971 0.0 0.0 0.0 34.33025523377368" Properties=species:S:1:pos:R:3:initial_magmoms:R:1 pbc="T T T"
Si      -0.99170262      -1.39431649      -1.63628387       0.00000000
Si       0.30019212       1.97540685      -1.27097542       0.00000000
Si      -1.87724331       0.41907654       1.44070430       0.00000000
Si       1.93306914      -0.79655819       1.25782692       0.00000000
Si       0.93876012      -2.79051677       2.03111636       0.00000000
Si       0.81357147      -2.90506805      -1.95438819       0.00000000
Si       2.15948385       2.90566359      -0.36197841       0.00000000
Si      -1.52707347       0.24250923      -3.30291570       0.00000000
Si      -2.19589200       2.69495244       1.32937122       0.00000000
Si      -1.72789659       3.20372172      -0.91315097       0.00000000
