10
Lattice="16.28999089631971 0.0 0.0 0.0 16.28999089631971 0.0 0.0 0.0 34.33025523377368" Properties=species:S:1:pos:R:3:initial_magmoms:R:1 pbc="T T T"
Si       0.47356496       0.44672067       2.25391984       0.00000000
Si      -1.22669794      -1.98926638       0.26884038       0.00000000
Si      -1.16085376       1.53440397      -1.35748771       0.00000000
Si       1.87995885      -0.13706406      -1.42000314       0.00000000
Si      -0.86157388      -2.71331779      -1.96173487       0.00000000
Si       1.01626957      -1.74042686      -2.98752347       0.00000000
Si       1.29332337       2.61809622       2.14337635       0.00000000
Si       2.54442795      -0.66624471       2.51572251       0.00000000
Si      -0.30967355      -3.23959083       2.15714279       0.00000000
Si      -3.30913009       2.00427273      -0.62326613       0.00000000
