10
Lattice="16.28999089631971 0.0 0.0 0.0 16.28999089631971 0.0 0.0 0.0 34.33025523377368" Properties=species:S:1:pos:R:3:initial_magmoms:R:1 pbc="T T T"
Si       1.35001746       1.34501643      -1.36946898       0.00000000
Si      -1.36827855      -1.37026593      -1.36545233       0.00000000
Si       1.30111488      -1.31272965       1.49717760       0.00000000
Si      -1.18897452       1.56118473       1.35923856       0.00000000
Si       2.69358408       2.69610903      -0.00329571       0.00000000
Si      -0.22879305      -2.29460940       3.04125035       0.00000000
Si       2.70031185      -2.71730069       0.01750844       0.00000000
Si      -2.46412314       0.19706013       2.92977995       0.00000000
Si      -0.00705357       2.70233181      -2.72383263       0.00000000
Si       2.70708849      -0.00908982      -2.72441625       0.00000000
