10
Lattice="16.28999089631971 0.0 0.0 0.0 16.28999089631971 0.0 0.0 0.0 34.33025523377368" Properties=species:S:1:pos:R:3:initial_magmoms:R:1 pbc="T T T"
Si      -0.34608105      -1.05725358      -2.06108669       0.00000000
Si       1.84181256       1.52684541      -0.12976844       0.00000000
Si      -2.12933106       1.10517876       0.32926166       0.00000000
Si       0.08835696      -1.43340597       1.95607038       0.00000000
Si      -1.64934621      -2.84781780      -1.01377300       0.00000000
Si       1.01331945       2.88225486       1.61959936       0.00000000
Si      -1.15530309       3.23535690       0.71176958       0.00000000
Si      -0.87521283       0.84352878      -3.48074652       0.00000000
Si       3.69906804       0.04469976      -0.04274119       0.00000000
Si      -2.11926384      -1.63696581       2.65410785       0.00000000
