10
Lattice="16.28999089631971 0.0 0.0 0.0 16.28999089631971 0.0 0.0 0.0 34.33025523377368" Properties=species:S:1:pos:R:3:initial_magmoms:R:1 pbc="T T T"
Si       1.85291745       1.26732128      -0.98057563       0.00000000
Si       0.49354953      -2.19849744      -0.99084038       0.00000000
Si      -2.04803974       0.11980481      -1.41993448       0.00000000
Si       0.14872281       0.81786714       2.49940331       0.00000000
Si       1.84421859       3.13984048       0.40111493       0.00000000
Si       1.50120006      -3.35142219       0.84548600       0.00000000
Si      -2.37108673       2.42107681      -1.75963255       0.00000000
Si      -1.42509872      -0.76623941      -3.65473235       0.00000000
Si       1.42900278       1.80710671      -3.29615264       0.00000000
Si       1.16085309      -0.81847380       3.83280490       0.00000000
