10
Lattice="16.28999089631971 0.0 0.0 0.0 16.28999089631971 0.0 0.0 0.0 34.33025523377368" Properties=species:S:1:pos:R:3:initial_magmoms:R:1 pbc="T T T"
Si      -1.08781362      -1.09983564      -1.74741097       0.00000000
Si      -0.46799541      -0.50876928       2.24252219       0.00000000
Si      -0.84260025       2.19993192      -0.04727279       0.00000000
Si       2.02808871      -1.22831487      -0.35782445       0.00000000
Si      -0.14934672      -2.78464518       2.35385527       0.00000000
Si       0.32193927       3.25646874       1.67329191       0.00000000
Si      -3.29543442      -1.30339548      -1.04937350       0.00000000
Si       1.72789659      -3.20372172       0.91315097       0.00000000
Si       1.42206813       0.11075571       3.47140869       0.00000000
Si       0.20082312      -2.96121249      -2.38976473       0.00000000
