10
Lattice="16.28999089631971 0.0 0.0 0.0 16.28999089631971 0.0 0.0 0.0 34.33025523377368" Properties=species:S:1:pos:R:3:initial_magmoms:R:1 pbc="T T T"
Si       0.31864869      -2.27587590       0.11133308       0.00000000
Si       1.89006354       0.61952499       1.22888650       0.00000000
Si       0.46799541       0.50876928      -2.24252219       0.00000000
Si      -1.53961677       1.04958099       1.45718283       0.00000000
Si      -0.37460484       2.70870120      -2.28979497       0.00000000
Si       1.52319645       2.89828422       1.48543664       0.00000000
Si       2.49608412      -0.71954559      -2.60034664       0.00000000
Si      -0.54032301       0.84336588       3.54223204       0.00000000
Si       2.19589200      -2.69495244      -1.32937122       0.00000000
Si      -2.93179275      -0.61286238       2.27856897       0.00000000
