10
Lattice="16.28999089631971 0.0 0.0 0.0 16.28999089631971 0.0 0.0 0.0 34.33025523377368" Properties=species:S:1:pos:R:3:initial_magmoms:R:1 pbc="T T T"
Si       1.35879777       1.32944319       1.37254840       0.00000000
Si       1.49060016      -1.14267834      -1.44397597       0.00000000
Si      -1.35545832      -1.38908088       1.37385295       0.00000000
Si      -1.17139761       1.62173466      -1.43738113       0.00000000
Si      -2.70487305       2.68232769       0.02118521       0.00000000
Si       2.73352716       2.67936291      -0.01980857       0.00000000
Si      -2.69793351      -2.72222190       0.00760416       0.00000000
Si       0.00475668       2.68982109       2.73264521       0.00000000
Si       2.71744893      -2.71712313      -0.00318242       0.00000000
Si      -2.70946683      -0.02440242       2.73257655       0.00000000
