10
Lattice="16.28999089631971 0.0 0.0 0.0 16.28999089631971 0.0 0.0 0.0 34.33025523377368" Properties=species:S:1:pos:R:3:initial_magmoms:R:1 pbc="T T T"
Si       0.94980474      -1.97358237      -0.84981161       0.00000000
Si       0.67178331      -0.15240924       2.25120775       0.00000000
Si       0.58826448       2.19318786      -0.65728743       0.00000000
Si      -2.33538327      -0.36784449      -0.00480624       0.00000000
Si      -2.35620189      -1.93122837       1.78455632       0.00000000
Si      -0.18757935      -2.28433041       2.69238610       0.00000000
Si       0.38527479       3.20424300       1.46573107       0.00000000
Si      -0.38797893       1.72693548       3.15886587       0.00000000
Si       3.06242226      -1.27537668      -1.87168656       0.00000000
Si      -0.35862435      -2.61850347      -2.74563236       0.00000000
