10
Lattice="16.28999089631971 0.0 0.0 0.0 16.28999089631971 0.0 0.0 0.0 34.33025523377368" Properties=species:S:1:pos:R:3:initial_magmoms:R:1 pbc="T T T"
Si       0.85936266       2.13192117      -0.44117836       0.00000000
Si       0.82849311      -1.35540945      -1.74936779       0.00000000
Si      -0.67974912      -1.01589327       2.03660920       0.00000000
Si      -2.16862254       0.35310204      -0.90782978       0.00000000
Si      -1.01331945      -2.88225486      -1.61959936       0.00000000
Si       0.18757935       2.28433041      -2.69238610       0.00000000
Si      -3.28300515       1.32444216       0.93398945       0.00000000
Si       1.13738409       0.31074804      -3.54219771       0.00000000
Si       0.48479040       0.04064355       3.75717389       0.00000000
Si      -3.14265051      -1.77707610      -1.29033769       0.00000000
