10
Lattice="16.28999089631971 0.0 0.0 0.0 16.28999089631971 0.0 0.0 0.0 34.33025523377368" Properties=species:S:1:pos:R:3:initial_magmoms:R:1 pbc="T T T"
Si      -0.69827085       0.33847362       2.22154639       0.00000000
Si      -0.52963677      -2.31215373       0.17072445       0.00000000
Si       1.53388269      -0.25723539      -1.88607095       0.00000000
Si      -1.96721298       1.82374695       0.69144606       0.00000000
Si      -1.52893053      -2.10593862      -1.91432476       0.00000000
Si      -2.51615340       0.05097141      -2.25251230       0.00000000
Si       1.66475655      -3.12142464       0.21761961       0.00000000
Si      -0.89528211       3.27264471      -1.06156075       0.00000000
Si      -1.02874608       1.80970497      -2.99651800       0.00000000
Si       1.90074978      -2.53599462      -2.14262109       0.00000000
