10
Lattice="16.28999089631971 0.0 0.0 0.0 16.28999089631971 0.0 0.0 0.0 34.33025523377368" Properties=species:S:1:pos:R:3:initial_magmoms:R:1 pbc="T T T"
Si       1.53707553      -1.00729215       1.40795321       0.00000000
Si      -1.15895205      -1.55577645      -1.32332909       0.00000000
Si       1.60565643       1.14002307      -1.34131815       0.00000000
Si      -1.29836187       1.56039371       1.59992811       0.00000000
Si       2.40373611       1.20920670       1.69481699       0.00000000
Si      -0.34381674      -1.64388906       2.71013485       0.00000000
Si       0.66329622       2.94217667       1.65602378       0.00000000
Si      -2.36840310      -0.11769525      -2.73334212       0.00000000
Si       0.34057503       2.60386758      -2.71267529       0.00000000
Si       2.86062174      -2.47213782       0.06454092       0.00000000
