10
Lattice="16.28999089631971 0.0 0.0 0.0 16.28999089631971 0.0 0.0 0.0 34.33025523377368" Properties=species:S:1:pos:R:3:initial_magmoms:R:1 pbc="T T T"
Si      -0.60211098      -1.94115875       1.14391976       0.00000000
Si      -1.27122273       1.99992330      -0.03798164       0.00000000
Si       2.02256640       0.78666039       1.06819747       0.00000000
Si      -1.02998412      -0.27686484      -2.61600883       0.00000000
Si      -1.76634099      -0.44429346       2.57099837       0.00000000
Si      -3.09330810       0.98495856       1.14273880       0.00000000
Si       2.86260912       1.59366699      -1.14406399       0.00000000
Si       0.96436800       2.30109282       2.56841330       0.00000000
Si      -1.86834897       1.95023880      -2.40851665       0.00000000
Si      -1.49516136      -3.70619396      -0.34945546       0.00000000
