10
Lattice="16.28999089631971 0.0 0.0 0.0 16.28999089631971 0.0 0.0 0.0 34.33025523377368" Properties=species:S:1:pos:R:3:initial_magmoms:R:1 pbc="T T T"
Si      -1.35707103       1.35410625       1.35494727       0.00000000
Si       1.35786924       1.35459495      -1.35772802       0.00000000
Si      -1.35700587      -1.36028016      -1.35783101       0.00000000
Si       1.35736425      -1.36063854       1.36054311       0.00000000
Si      -2.71414206       2.71142163       0.00058361       0.00000000
Si      -0.01350441       2.70519885       2.72112054       0.00000000
Si       0.00045612       2.71217097      -2.71521573       0.00000000
Si       2.71533123       2.71287144      -0.00041196       0.00000000
Si       2.71531494      -0.00096111      -2.71442614       0.00000000
Si      -2.71404432      -2.71698304      -0.00030897       0.00000000
