10
Lattice="16.28999089631971 0.0 0.0 0.0 16.28999089631971 0.0 0.0 0.0 34.33025523377368" Properties=species:S:1:pos:R:3:initial_magmoms:R:1 pbc="T T T"
Si      -0.25831053       0.73770894      -2.19562703       0.00000000
Si       1.90321676      -1.55637918       0.26362218       0.00000000
Si      -2.34750303      -0.77245551      -0.19829167       0.00000000
Si       1.25177247       1.69569126       1.55183139       0.00000000
Si      -0.52981596       1.40835195       3.08982769       0.00000000
Si       3.11955196       0.24764058       1.57459237       0.00000000
Si       0.56751102      -3.15608976       1.45707984       0.00000000
Si      -1.09985193      -1.21881780      -3.35145871       0.00000000
Si      -1.93401396       2.49510672      -2.06239124       0.00000000
Si      -1.50071625      -0.73836054       3.42526880       0.00000000
