10
Lattice="16.28999089631971 0.0 0.0 0.0 16.28999089631971 0.0 0.0 0.0 34.33025523377368" Properties=species:S:1:pos:R:3:initial_magmoms:R:1 pbc="T T T"
Si       1.34988714      -1.36601424      -1.34169578       0.00000000
Si      -1.39145922       1.35718506      -1.34942010       0.00000000
Si       0.84154140       1.95652674       1.15583168       0.00000000
Si      -1.16822106      -1.42822575       1.57953593       0.00000000
Si      -1.24765110       0.44636229       3.15316704       0.00000000
Si       1.09985193       1.21881780       3.35145871       0.00000000
Si       2.69749600       0.00501732      -2.71157673       0.00000000
Si      -0.02059056      -2.70865233      -2.70999753       0.00000000
Si       2.70752461      -2.70817992       0.21452988       0.00000000
Si      -0.02145393       2.72111418      -2.70804071       0.00000000
