10
Lattice="16.28999089631971 0.0 0.0 0.0 16.28999089631971 0.0 0.0 0.0 34.33025523377368" Properties=species:S:1:pos:R:3:initial_magmoms:R:1 pbc="T T T"
Si      -0.20803959       0.47387610       2.29037859       0.00000000
Si      -1.70294031      -1.05156837      -1.23152993       0.00000000
Si       1.09755504       1.53264465      -1.44214617       0.00000000
Si       1.81050318      -1.57108905       0.05911673       0.00000000
Si       3.25002997       0.38139777      -0.93299387       0.00000000
Si      -0.33845733      -1.72789659       3.06586516       0.00000000
Si       2.09482884       0.08184096       2.87241406       0.00000000
Si      -0.58544631      -1.10516247      -3.35187067       0.00000000
Si       1.80981900      -2.19776535       2.33164358       0.00000000
Si      -2.02323429      -3.16022742      -0.15331901       0.00000000
