10
Lattice="16.28999089631971 0.0 0.0 0.0 16.28999089631971 0.0 0.0 0.0 34.33025523377368" Properties=species:S:1:pos:R:3:initial_magmoms:R:1 pbc="T T T"
Si       0.84942576       1.84059081      -1.21227065       0.00000000
Si      -0.87265530       0.50573934       2.19548971       0.00000000
Si      -1.87294275      -0.91170243      -1.25332966       0.00000000
Si       1.67570343      -1.75739778      -0.13323580       0.00000000
Si      -2.07482472      -1.50679242       2.12490667       0.00000000
Si       2.18196405       0.39351753      -2.63134687       0.00000000
Si      -0.55729719      -2.35673946      -2.63848757       0.00000000
Si       1.93401396      -2.49510672       2.06239124       0.00000000
Si      -0.41348907      -3.26756223       1.86409957       0.00000000
Si       3.62501062      -0.86139891      -1.22662071       0.00000000
