10
Lattice="16.28999089631971 0.0 0.0 0.0 16.28999089631971 0.0 0.0 0.0 34.33025523377368" Properties=species:S:1:pos:R:3:initial_magmoms:R:1 pbc="T T T"
Si      -1.44785520       1.86098589      -0.42425353       0.00000000
Si      -1.15908237      -2.00029797      -0.73937112       0.00000000
Si       0.47113938      -0.93012642       2.19435681       0.00000000
Si       1.90830834       0.41518323      -1.47139556       0.00000000
Si       3.24431218      -1.49584554      -1.12744054       0.00000000
Si       0.36505890      -3.75368841      -0.29342086       0.00000000
Si       2.61271239      -0.22745727       2.79767705       0.00000000
Si      -2.27410029       1.60515144      -2.64051306       0.00000000
Si      -1.31245272      -0.19315053       3.64858724       0.00000000
Si      -0.23486922       3.89332629       0.02125044       0.00000000
