10
Lattice="16.28999089631971 0.0 0.0 0.0 16.28999089631971 0.0 0.0 0.0 34.33025523377368" Properties=species:S:1:pos:R:3:initial_magmoms:R:1 pbc="T T T"
Si      -1.09755504      -1.53264465       1.44214617       0.00000000
Si      -0.71210106      -0.49109463      -2.24516562       0.00000000
Si      -0.60602058       2.33246736       0.24261205       0.00000000
Si       2.15247493      -1.15124688       0.50915230       0.00000000
Si       1.53555243       3.03513651       0.84593229       0.00000000
Si       0.71294814      -3.10373370       1.50126290       0.00000000
Si       2.92526602       1.92956679      -0.83182255       0.00000000
Si      -1.68300135      -2.63780712      -1.90972451       0.00000000
Si      -2.23624233       1.26229581      -2.69111588       0.00000000
Si      -2.80049535      -2.58421302       0.21061623       0.00000000
