10
Lattice="16.28999089631971 0.0 0.0 0.0 16.28999089631971 0.0 0.0 0.0 34.33025523377368" Properties=species:S:1:pos:R:3:initial_magmoms:R:1 pbc="T T T"
Si       1.80758727       0.66210705       1.29638532       0.00000000
Si       1.35977517       0.23092704      -1.93997226       0.00000000
Si      -0.78045390      -2.05912116       1.09216138       0.00000000
Si      -2.01062583       1.39370724      -0.26647438       0.00000000
Si       0.44533602       1.96250942       2.66175869       0.00000000
Si      -2.23853922      -0.78051906       2.66605341       0.00000000
Si      -1.11757545       3.15874244       1.22690084       0.00000000
Si      -2.76340302      -2.65719222      -0.08795695       0.00000000
Si      -3.52865835       0.65858841       1.36702672       0.00000000
Si       0.12953808      -0.10731852      -3.91694978       0.00000000
