10
Lattice="16.28999089631971 0.0 0.0 0.0 16.28999089631971 0.0 0.0 0.0 34.33025523377368" Properties=species:S:1:pos:R:3:initial_magmoms:R:1 pbc="T T T"
Si      -1.80758727      -0.66210705      -1.29638532       0.00000000
Si      -1.36225125       1.30040237       1.36537338       0.00000000
Si       1.36342827      -1.43927037       1.33833142       0.00000000
Si      -0.44781210      -0.43118001      -3.23635758       0.00000000
Si      -2.58804117      -2.72122821      -0.20422394       0.00000000
Si      -0.00034209       2.64047935       2.72984730       0.00000000
Si      -2.92516272       2.49663539      -0.06948448       0.00000000
Si       2.71349765      -0.07527609       2.72813078       0.00000000
Si      -2.71404432      -0.07638381       2.73228475       0.00000000
Si       0.00065160      -2.78866881       2.73056823       0.00000000
