10
Lattice="16.28999089631971 0.0 0.0 0.0 16.28999089631971 0.0 0.0 0.0 34.33025523377368" Properties=species:S:1:pos:R:3:initial_magmoms:R:1 pbc="T T T"
Si       1.64770387       1.02266991      -1.34100918       0.00000000
Si      -1.32354621       1.46484567       1.34341230       0.00000000
Si      -1.12005153      -1.60324551      -1.37180344       0.00000000
Si       0.20312001       2.34395181      -2.78562713       0.00000000
Si      -2.86062174       2.47213782      -0.06454092       0.00000000
Si      -2.52597627      -0.35833113      -2.79177225       0.00000000
Si       2.87851698       2.69799867      -0.14446179       0.00000000
Si       0.97797015      -0.36171945       3.81471143       0.00000000
Si      -1.96947729      -3.44383632      -0.15953279       0.00000000
Si      -0.45688563       3.68134452       1.63027607       0.00000000
