10
Lattice="16.28999089631971 0.0 0.0 0.0 16.28999089631971 0.0 0.0 0.0 34.33025523377368" Properties=species:S:1:pos:R:3:initial_magmoms:R:1 pbc="T T T"
Si       0.38914367       0.83362446      -2.16685826       0.00000000
Si       2.18442221      -0.89332731       0.25576054       0.00000000
Si      -2.07579465      -1.22518719      -0.36366060       0.00000000
Si      -0.39564826       1.33418358       2.10269498       0.00000000
Si      -1.47863583       2.28167514      -2.18961923       0.00000000
Si      -2.00610603      -2.41600248       1.62234578       0.00000000
Si       1.96401851      -1.79082486       2.39615016       0.00000000
Si       3.34019771       1.15571034       0.62824402       0.00000000
Si       1.75829210       2.66551641       1.70837745       0.00000000
Si      -1.83517506      -0.61830324       3.09480558       0.00000000
