10
Lattice="16.28999089631971 0.0 0.0 0.0 16.28999089631971 0.0 0.0 0.0 34.33025523377368" Properties=species:S:1:pos:R:3:initial_magmoms:R:1 pbc="T T T"
Si      -1.03276971       1.63789434      -1.29596786       0.00000000
Si       1.97574894       0.10736739      -1.23616452       0.00000000
Si       1.23023709       0.33824556       1.97697751       0.00000000
Si      -1.22378625      -1.94355990      -0.56634654       0.00000000
Si      -0.76395213       0.38833731      -3.28818801       0.00000000
Si       0.34981146      -3.62486709      -0.12791460       0.00000000
Si      -3.32109117       0.54924993       1.56082593       0.00000000
Si      -3.29719374       1.66617378      -0.61701802       0.00000000
Si      -2.91429729      -2.01619701       1.23118663       0.00000000
Si      -1.73192022      -1.72862964      -2.90166345       0.00000000
