10
Lattice="16.28999089631971 0.0 0.0 0.0 16.28999089631971 0.0 0.0 0.0 34.33025523377368" Properties=species:S:1:pos:R:3:initial_magmoms:R:1 pbc="T T T"
Si      -1.78775324       1.29624417      -0.68451134       0.00000000
Si      -0.81975841      -2.17137555       0.11054348       0.00000000
Si       0.20681784       0.82220517       2.21492064       0.00000000
Si       1.76516811       0.04109967      -1.58859912       0.00000000
Si       2.87150346      -1.77606612      -0.54077048       0.00000000
Si      -0.82126524       3.32855199      -0.21978242       0.00000000
Si       1.25110458      -3.28434093       0.37234616       0.00000000
Si      -1.29332337      -2.61809622      -2.14337635       0.00000000
Si      -1.26421477       2.80896615       2.10674595       0.00000000
Si      -2.16916730       1.19591406      -2.96009358       0.00000000
