10
Lattice="16.28999089631971 0.0 0.0 0.0 16.28999089631971 0.0 0.0 0.0 34.33025523377368" Properties=species:S:1:pos:R:3:initial_magmoms:R:1 pbc="T T T"
Si      -2.27615839      -0.62968995      -0.36908478       0.00000000
Si       0.50346037       1.33952670      -1.93245115       0.00000000
Si       1.96296292      -1.43428563      -0.07775807       0.00000000
Si       0.11652889       1.53717327       1.92916372       0.00000000
Si       1.46554777       3.05652528       0.57767553       0.00000000
Si      -2.74886161       1.69815105      -1.25786125       0.00000000
Si       2.66801041       1.99687707      -1.15559137       0.00000000
Si       2.02028743      -1.91345598       2.21791909       0.00000000
Si       1.25868106       0.04657311       3.35970969       0.00000000
Si       3.69667504      -0.10793754      -1.00192906       0.00000000
