10
Lattice="16.28999089631971 0.0 0.0 0.0 16.28999089631971 0.0 0.0 0.0 34.33025523377368" Properties=species:S:1:pos:R:3:initial_magmoms:R:1 pbc="T T T"
Si      -1.44304657       1.25491644      -1.40472617       0.00000000
Si       1.25838507      -1.48897116      -1.39628092       0.00000000
Si      -1.94930719      -0.89599887       1.09338491       0.00000000
Si       1.75457358       0.87426801       1.49896277       0.00000000
Si       2.63542275      -2.67325416       0.19341677       0.00000000
Si       2.74650426       2.59976997       0.14497675       0.00000000
Si      -0.09801981       2.58181839      -2.77625496       0.00000000
Si       2.62098981      -0.13141143      -2.77395483       0.00000000
Si      -2.77558486       2.70198972       0.01435005       0.00000000
Si      -3.62501062       0.86139891       1.22662071       0.00000000
