10
Lattice="16.28999089631971 0.0 0.0 0.0 16.28999089631971 0.0 0.0 0.0 34.33025523377368" Properties=species:S:1:pos:R:3:initial_magmoms:R:1 pbc="T T T"
Si       1.33473907       1.85479569      -0.46098692       0.00000000
Si      -0.75811379      -0.16281855      -2.24736275       0.00000000
Si       1.38114928      -1.74948084       0.94665732       0.00000000
Si      -1.38971358       1.10556972       1.67775484       0.00000000
Si       2.41414705       1.82801493       1.57685816       0.00000000
Si      -0.77279108      -3.08081367       1.34097485       0.00000000
Si       2.36851876      -0.29898666       2.67865399       0.00000000
Si      -2.92526602      -1.92956679       0.83182255       0.00000000
Si      -3.53128660       0.40290057       1.07443460       0.00000000
Si       2.75350033       1.06342749      -2.28443945       0.00000000
