10
Lattice="16.28999089631971 0.0 0.0 0.0 16.28999089631971 0.0 0.0 0.0 34.33025523377368" Properties=species:S:1:pos:R:3:initial_magmoms:R:1 pbc="T T T"
Si       1.61368740      -1.67980851       0.33554410       0.00000000
Si      -0.52797421       0.31485312      -2.30338976       0.00000000
Si      -1.92064706       0.24601158       1.39233294       0.00000000
Si       1.10871369       2.01895002       0.66291760       0.00000000
Si      -0.65469572       3.31921782      -0.12688469       0.00000000
Si       3.23025813      -1.08970326      -1.30249061       0.00000000
Si      -0.67892552       2.68306074      -2.50054853       0.00000000
Si      -2.20248035       2.59706583       1.54046807       0.00000000
Si      -1.42445366      -0.48593070       3.54954439       0.00000000
Si       2.34532017      -1.65175713       2.59245067       0.00000000
