10
Lattice="16.28999089631971 0.0 0.0 0.0 16.28999089631971 0.0 0.0 0.0 34.33025523377368" Properties=species:S:1:pos:R:3:initial_magmoms:R:1 pbc="T T T"
Si      -1.34914269      -1.33849554       1.37338263       0.00000000
Si      -1.35234041       1.35759231      -1.35923856       0.00000000
Si       1.36143675      -1.35793766      -1.35896391       0.00000000
Si       1.36236528       1.37901366       1.39439276       0.00000000
Si       0.18378378      -2.56047116       2.72060559       0.00000000
Si      -2.70859204       2.71207323       0.00133888       0.00000000
Si      -2.71152707      -0.00070047      -2.71449480       0.00000000
Si       2.71334385       2.71459818       0.00274642       0.00000000
Si       0.00324171       2.71440270      -2.71480377       0.00000000
Si      -2.71602260      -2.71333475       0.00240312       0.00000000
