10
Lattice="16.28999089631971 0.0 0.0 0.0 16.28999089631971 0.0 0.0 0.0 34.33025523377368" Properties=species:S:1:pos:R:3:initial_magmoms:R:1 pbc="T T T"
Si      -1.01213028       1.63634094      -1.33340159       0.00000000
Si       1.34496756       1.36601328       1.37281275       0.00000000
Si      -1.38181554      -1.34382726       1.36258232       0.00000000
Si       1.51052283      -1.23176835      -1.47083598       0.00000000
Si       0.74069001       3.47914394      -1.13601281       0.00000000
Si       2.68967448      -2.68354944       0.00384156       0.00000000
Si       2.68685631       2.71445876      -0.00412307       0.00000000
Si       2.69311167       0.01651116       2.72710774       0.00000000
Si      -0.02003670      -2.69798238       2.72425833       0.00000000
Si      -2.73188492      -2.70782154      -0.02721704       0.00000000
