10
Lattice="16.28999089631971 0.0 0.0 0.0 16.28999089631971 0.0 0.0 0.0 34.33025523377368" Properties=species:S:1:pos:R:3:initial_magmoms:R:1 pbc="T T T"
Si       1.35184194      -1.35801585      -1.35827731       0.00000000
Si       1.35666378       1.35625653       1.35844896       0.00000000
Si      -1.35972630      -1.35907470       1.35759070       0.00000000
Si      -1.36177884       1.35415512      -1.36167600       0.00000000
Si       0.02003670       2.69798238      -2.72425833       0.00000000
Si       2.71314837       2.71449354       0.00284941       0.00000000
Si       2.71329498      -0.00143352       2.71521573       0.00000000
Si      -0.00192222       2.71375807       2.71569636       0.00000000
Si       2.70971118       0.01443294      -2.72041677       0.00000000
Si       2.71572219      -2.71500543       0.00075527       0.00000000
