10
Lattice="16.28999089631971 0.0 0.0 0.0 16.28999089631971 0.0 0.0 0.0 34.31052061344573" Properties=species:S:1:pos:R:3:initial_magmoms:R:1 pbc="T T T"
Si      -1.67836359       1.43200503      -0.83487836       0.00000000
Si      -1.52614494      -1.09641474       1.53853062       0.00000000
Si       1.30447062       1.57299498       1.43258310       0.00000000
Si      -0.38692008      -1.47663963      -2.10203522       0.00000000
Si      -0.54936396       2.53876392      -2.56553630       0.00000000
Si      -0.01506825      -2.24513667       2.95751848       0.00000000
Si       1.40582700      -3.07115370      -1.73642211       0.00000000
Si      -2.77764767      -2.06472492      -1.58607332       0.00000000
Si       2.69636967       0.46209843       2.97371991       0.00000000
Si      -3.66877583       0.10205685      -1.69188703       0.00000000
