10
Lattice="16.28999089631971 0.0 0.0 0.0 16.28999089631971 0.0 0.0 0.0 34.31052061344573" Properties=species:S:1:pos:R:3:initial_magmoms:R:1 pbc="T T T"
Si       1.25789751      -1.86395067       0.59240578       0.00000000
Si      -1.80190206       0.56153259       1.37780835       0.00000000
Si       1.33400439       1.91813121      -0.07778199       0.00000000
Si       0.17182692      -0.49335894      -2.34141986       0.00000000
Si       1.75114242      -2.14532947      -1.66941362       0.00000000
Si       0.18358830       2.73624759      -1.97148362       0.00000000
Si      -1.50467472       2.85770583       1.68499061       0.00000000
Si      -3.72821574       0.07232760       0.14616290       0.00000000
Si      -0.17614377      -3.62220938       1.17496444       0.00000000
Si       3.30222735      -1.27638666       1.63095151       0.00000000
