10
Lattice="16.28999089631971 0.0 0.0 0.0 16.28999089631971 0.0 0.0 0.0 34.31052061344573" Properties=species:S:1:pos:R:3:initial_magmoms:R:1 pbc="T T T"
Si      -1.85345991       1.42009704       0.12787538       0.00000000
Si       1.73442888       0.92981691      -1.28060659       0.00000000
Si      -0.10712304      -0.16791732       2.35528131       0.00000000
Si      -0.55521207      -2.27977084      -0.30261896       0.00000000
Si      -3.10941891       0.33223455      -1.52596126       0.00000000
Si      -2.41943967       0.44290881       2.49691522       0.00000000
Si      -2.39604723      -1.92086141      -1.71521819       0.00000000
Si       3.41534511       1.13994162       0.72038409       0.00000000
Si       0.59857605      -2.41684304       2.77908510       0.00000000
Si       2.01451914      -0.29406708      -3.28386176       0.00000000
