10
Lattice="16.28999089631971 0.0 0.0 0.0 16.28999089631971 0.0 0.0 0.0 34.31052061344573" Properties=species:S:1:pos:R:3:initial_magmoms:R:1 pbc="T T T"
Si      -1.33532388      -1.34711784      -1.37554385       0.00000000
Si       1.37114559       1.36752921      -1.37249021       0.00000000
Si       1.36391283      -1.36285398       1.41822616       0.00000000
Si      -1.33770222       1.29779172       1.50297320       0.00000000
Si       2.13584706       0.44497764       2.75873895       0.00000000
Si       0.64622430       2.34810576       2.61261036       0.00000000
Si      -2.70989037      -2.70891297       0.01067058       0.00000000
Si      -2.69307909       2.72771163       0.02683084       0.00000000
Si      -2.70050733       0.00842193      -2.73074155       0.00000000
Si       2.73958704      -2.69762400       0.00212725       0.00000000
