10
Lattice="16.28999089631971 0.0 0.0 0.0 16.28999089631971 0.0 0.0 0.0 34.31052061344573" Properties=species:S:1:pos:R:3:initial_magmoms:R:1 pbc="T T T"
Si      -0.42538077       1.40318802       1.76387054       0.00000000
Si       2.23777359       0.46059975      -0.44301769       0.00000000
Si      -0.43714215      -1.82641851       1.39393430       0.00000000
Si      -1.46997702       1.22394915      -1.40079641       0.00000000
Si      -2.04353163      -0.67953735      -2.65319973       0.00000000
Si      -1.87126488      -2.96792397      -0.04127558       0.00000000
Si      -0.74740149      -2.73644307      -2.10714749       0.00000000
Si      -2.82264975       1.35658233       1.76157173       0.00000000
Si      -0.02101410       2.90673873      -2.16890646       0.00000000
Si       3.07858194      -1.43936811      -1.52987266       0.00000000
