10
Lattice="16.28999089631971 0.0 0.0 0.0 16.28999089631971 0.0 0.0 0.0 34.31052061344573" Properties=species:S:1:pos:R:3:initial_magmoms:R:1 pbc="T T T"
Si      -2.13939502       0.89974557      -0.12845866       0.00000000
Si       1.43412273       1.14150546       1.43520988       0.00000000
Si      -0.25166421      -2.06679945       1.09900090       0.00000000
Si       1.12386339       0.23148090      -2.06587191       0.00000000
Si       2.09451933      -2.33758961       1.03195811       0.00000000
Si      -0.17226675       2.28838662      -2.61192415       0.00000000
Si       1.87126488       2.96792397       0.04127558       0.00000000
Si      -3.36631940      -1.12065100       0.13089471       0.00000000
Si       0.21758553      -1.61177007      -3.31415797       0.00000000
Si       3.01343823      -0.51046507       2.10721611       0.00000000
