10
Lattice="16.28999089631971 0.0 0.0 0.0 16.28999089631971 0.0 0.0 0.0 34.31052061344573" Properties=species:S:1:pos:R:3:initial_magmoms:R:1 pbc="T T T"
Si       1.20503646      -1.63743822       1.31522592       0.00000000
Si       0.85092444       2.20791402      -0.54172911       0.00000000
Si      -1.43438337      -1.72485036      -0.99613790       0.00000000
Si      -1.60937055       1.33910316       1.57474883       0.00000000
Si       2.08808478      -0.41699142      -2.63103512       0.00000000
Si       3.49094700      -1.05267609      -0.72655999       0.00000000
Si       0.05396877       2.60817561       2.76886540       0.00000000
Si       1.80620262       1.92907809      -2.74604405       0.00000000
Si       2.52651384      -0.45491454       2.87185192       0.00000000
Si      -1.32726033      -1.55693304      -3.35141922       0.00000000
