10
Lattice="16.28999089631971 0.0 0.0 0.0 16.28999089631971 0.0 0.0 0.0 34.31052061344573" Properties=species:S:1:pos:R:3:initial_magmoms:R:1 pbc="T T T"
Si      -1.34408790      -1.36684503      -1.35584617       0.00000000
Si      -1.35438318       1.35518139       1.35924634       0.00000000
Si       1.36091547      -1.35927018       1.35591822       0.00000000
Si       1.35208629       1.36391283      -1.38051202       0.00000000
Si       0.08257401      -2.57717574      -2.82472841       0.00000000
Si      -2.70656721       2.71264338      -0.00003431       0.00000000
Si      -2.71088406      -0.00180819       2.71550767       0.00000000
Si      -2.71070487      -2.71757925       0.00102932       0.00000000
Si       0.00345348       2.71300176       2.71571353       0.00000000
Si       2.72046258       2.71013472      -0.00082345       0.00000000
