10
Lattice="16.28999089631971 0.0 0.0 0.0 16.28999089631971 0.0 0.0 0.0 34.31052061344573" Properties=species:S:1:pos:R:3:initial_magmoms:R:1 pbc="T T T"
Si       1.35438318      -1.35518139      -1.35924634       0.00000000
Si      -1.35218403       1.35746199      -1.35928065       0.00000000
Si      -1.35650088      -1.35698958       1.35626133       0.00000000
Si       1.35783666       1.35782037       1.35646719       0.00000000
Si      -0.00676035       2.69254152      -2.72730020       0.00000000
Si      -2.71448415       0.00039096       2.71382646       0.00000000
Si       0.00105885      -2.71446786       2.71392939       0.00000000
Si       2.71586880      -0.00004887       2.71365490       0.00000000
Si      -2.71441899       2.71513575      -0.00082345       0.00000000
Si       2.71529865      -2.71445157      -0.00332812       0.00000000
