10
Lattice="16.28999089631971 0.0 0.0 0.0 16.28999089631971 0.0 0.0 0.0 34.31052061344573" Properties=species:S:1:pos:R:3:initial_magmoms:R:1 pbc="T T T"
Si       1.34949618       1.35509994      -1.39606155       0.00000000
Si      -1.36653552      -1.35485559      -1.39726242       0.00000000
Si       1.35537687      -1.42991991       1.47614235       0.00000000
Si      -1.38647448       1.44246321       1.50228698       0.00000000
Si       2.68542279       2.72880306      -0.01815028       0.00000000
Si      -2.71466986       2.70554094      -0.04209903       0.00000000
Si       2.69307909      -2.72771163      -0.02683084       0.00000000
Si      -2.72684663      -2.71544526      -0.03448209       0.00000000
Si       2.70873378      -0.00203625      -2.75887619       0.00000000
Si      -0.00749340       2.71476108      -2.75928792       0.00000000
