10
Lattice="16.28999089631971 0.0 0.0 0.0 16.28999089631971 0.0 0.0 0.0 34.31052061344573" Properties=species:S:1:pos:R:3:initial_magmoms:R:1 pbc="T T T"
Si       1.40765148      -1.29902976       1.37101486       0.00000000
Si      -1.33592661      -1.37370312      -1.37791128       0.00000000
Si       1.37774304       1.34552142      -1.38024439       0.00000000
Si      -1.50526116       1.35979146       1.54140100       0.00000000
Si      -2.67706602       2.68685631      -0.03736418       0.00000000
Si      -2.68542279      -2.72880306       0.01815028       0.00000000
Si       2.71968066       2.69651628       0.00854332       0.00000000
Si      -2.69291619      -0.01404198      -2.74113764       0.00000000
Si       0.02117700       2.69951364      -2.74206403       0.00000000
Si       2.73426021      -2.71187775      -0.01708665       0.00000000
