10
Lattice="16.28999089631971 0.0 0.0 0.0 16.28999089631971 0.0 0.0 0.0 34.31052061344573" Properties=species:S:1:pos:R:3:initial_magmoms:R:1 pbc="T T T"
Si       1.40333463      -1.88232579       0.14190839       0.00000000
Si       0.21906792       1.92380013       1.35965807       0.00000000
Si      -0.54687159       0.76245345      -2.18451776       0.00000000
Si      -1.99257651      -0.55052055       1.19445282       0.00000000
Si      -2.23078518       2.16979542      -1.41836340       0.00000000
Si      -3.02436882       1.47111732       0.70274848       0.00000000
Si       0.43316739      -3.05367453      -1.64632263       0.00000000
Si       1.48123341       1.89926739      -2.53438233       0.00000000
Si       0.52600410      -2.88139149       2.02655203       0.00000000
Si       1.23514038       0.87259014       3.24862484       0.00000000
