10
Lattice="16.28999089631971 0.0 0.0 0.0 16.28999089631971 0.0 0.0 0.0 34.31052061344573" Properties=species:S:1:pos:R:3:initial_magmoms:R:1 pbc="T T T"
Si       0.13869306      -1.11294909      -2.09067843       0.00000000
Si       2.24640729      -0.47254032       0.75273893       0.00000000
Si      -0.37553337       2.30496984      -0.73777954       0.00000000
Si      -1.73413566      -0.85866219       1.53937668       0.00000000
Si      -0.11114667      -0.77307453       3.41904529       0.00000000
Si      -1.38380292       0.07811055      -3.37107916       0.00000000
Si       2.92574916       1.75394430       1.50606114       0.00000000
Si      -3.52688274       0.73585188       1.17376357       0.00000000
Si       2.23490655      -0.61530588      -3.03644846       0.00000000
Si       1.65612285       2.94928821      -1.77927597       0.00000000
