10
Lattice="16.28999089631971 0.0 0.0 0.0 16.28999089631971 0.0 0.0 0.0 34.31052061344573" Properties=species:S:1:pos:R:3:initial_magmoms:R:1 pbc="T T T"
Si      -0.98906364      -1.68593355      -1.36401551       0.00000000
Si       0.17563878      -0.63517968       2.30656035       0.00000000
Si       1.74379563       0.95205276      -1.37852887       0.00000000
Si      -1.84063968       1.58093051       0.08382065       0.00000000
Si       2.57592141      -1.03684221       2.23793927       0.00000000
Si      -2.16086850      -0.35886870      -2.94278069       0.00000000
Si       0.54159363       2.35191992      -2.91787124       0.00000000
Si      -2.85189030      -2.49122970      -0.03829056       0.00000000
Si       2.85871581       2.54274587       0.04203041       0.00000000
Si      -1.25320599      -2.53302984       2.61449744       0.00000000
