10
Lattice="16.28999089631971 0.0 0.0 0.0 16.28999089631971 0.0 0.0 0.0 34.31052061344573" Properties=species:S:1:pos:R:3:initial_magmoms:R:1 pbc="T T T"
Si      -2.37578247       0.13833468      -0.09490295       0.00000000
Si       1.42884477       1.89785016      -0.30793709       0.00000000
Si       0.79612488      -1.29964878       1.87647773       0.00000000
Si      -1.59868431       0.04180014      -2.65278800       0.00000000
Si      -2.46887982       2.18527092       1.30081549       0.00000000
Si       2.94886467      -1.84350672       0.99318720       0.00000000
Si       1.25320599       2.53302984      -2.61449744       0.00000000
Si       1.28041029       3.25138626       1.92722302       0.00000000
Si      -0.56698974      -3.12031692       2.50305681       0.00000000
Si       0.26414235       0.84709629      -3.97851295       0.00000000
