10
Lattice="16.28999089631971 0.0 0.0 0.0 16.28999089631971 0.0 0.0 0.0 34.31052061344573" Properties=species:S:1:pos:R:3:initial_magmoms:R:1 pbc="T T T"
Si       1.68391359      -1.40734197      -0.76615435       0.00000000
Si       0.12970098       2.21024349      -0.71036542       0.00000000
Si      -1.94263137       0.17643699      -1.27913123       0.00000000
Si      -0.79358364      -0.69867810       2.12111188       0.00000000
Si      -2.21648256       2.48103364      -0.64332262       0.00000000
Si       2.23078518      -2.16979542       1.41836340       0.00000000
Si       2.44985310      -0.24599529       2.77802148       0.00000000
Si       0.23820867      -2.72031597       2.61281623       0.00000000
Si       1.37578824       2.14536042      -2.79761279       0.00000000
Si       0.89150283      -2.40567462      -2.84835808       0.00000000
