10
Lattice="16.28999089631971 0.0 0.0 0.0 16.28999089631971 0.0 0.0 0.0 34.31052061344573" Properties=species:S:1:pos:R:3:initial_magmoms:R:1 pbc="T T T"
Si       0.33244632      -2.22498594      -0.67886834       0.00000000
Si       1.34071587       0.00187335       1.95443128       0.00000000
Si      -2.34044946       0.47825811      -0.37583765       0.00000000
Si       1.10741049       1.25910297      -1.76445382       0.00000000
Si      -2.22580044      -0.21908421      -2.58138777       0.00000000
Si      -0.04362462      -0.02757897      -3.46323727       0.00000000
Si       2.46272220       2.50062903      -0.17007735       0.00000000
Si       0.37800945       2.05868133       2.83490835       0.00000000
Si       3.37237209       0.64619172       0.91293484       0.00000000
Si      -1.71330075      -3.30903657      -0.11912619       0.00000000
