10
Lattice="16.28999089631971 0.0 0.0 0.0 16.28999089631971 0.0 0.0 0.0 34.31052061344573" Properties=species:S:1:pos:R:3:initial_magmoms:R:1 pbc="T T T"
Si       0.40192317       1.53302488      -1.77275697       0.00000000
Si       0.96270642      -2.05680798      -0.88047707       0.00000000
Si      -2.35108683       0.38947761       0.56756495       0.00000000
Si       1.55571129       1.39595267       1.30894709       0.00000000
Si      -0.37800945      -2.05868133      -2.83490835       0.00000000
Si       2.08471275       0.44194770      -3.00498570       0.00000000
Si       1.44011745       0.33661656       3.40024311       0.00000000
Si       2.99436264      -1.41248961      -1.92197351       0.00000000
Si       0.85001220       3.64487840       0.88514331       0.00000000
Si      -1.43891199       1.89193430      -3.18535620       0.00000000
