10
Lattice="16.28999089631971 0.0 0.0 0.0 16.28999089631971 0.0 0.0 0.0 34.31052061344573" Properties=species:S:1:pos:R:3:initial_magmoms:R:1 pbc="T T T"
Si       1.45344267      -1.23454742      -1.43339142       0.00000000
Si      -1.25019234       1.49051871      -1.43033778       0.00000000
Si       1.60490709       1.20806640       1.38758685       0.00000000
Si      -1.65491739      -1.05686262       1.52366245       0.00000000
Si      -3.11582088       0.99196326       1.56555562       0.00000000
Si       0.37067895       1.31861034       3.42148134       0.00000000
Si       0.10249668      -2.58985146      -2.80245058       0.00000000
Si      -2.76983757      -2.64755573       0.10310317       0.00000000
Si      -2.61926910       0.13155804      -2.80444059       0.00000000
Si      -2.62586655       2.82528873      -0.01423887       0.00000000
