10
Lattice="16.28999089631971 0.0 0.0 0.0 16.28999089631971 0.0 0.0 0.0 34.31052061344573" Properties=species:S:1:pos:R:3:initial_magmoms:R:1 pbc="T T T"
Si      -1.15732305       1.99166427      -0.43817990       0.00000000
Si       0.63035784      -1.19733129      -1.92317438       0.00000000
Si      -1.53718956      -1.01318913       1.48938622       0.00000000
Si       1.81736127       0.47760651       1.46063399       0.00000000
Si      -0.98588709      -2.81951718      -1.82226708       0.00000000
Si      -0.32922090       3.25510038       1.36782398       0.00000000
Si       1.97636796       2.81372283       1.17578789       0.00000000
Si      -0.67906494      -3.04717808       2.14547236       0.00000000
Si      -0.69757038       2.91933090      -2.51630068       0.00000000
Si      -1.81727982       0.21069486       3.49264140       0.00000000
