10
Lattice="16.28999089631971 0.0 0.0 0.0 16.28999089631971 0.0 0.0 0.0 34.31052061344573" Properties=species:S:1:pos:R:3:initial_magmoms:R:1 pbc="T T T"
Si      -2.26653228      -0.28013913       0.50584029       0.00000000
Si       1.25595900       1.08786249       1.65383664       0.00000000
Si       0.01980864       1.21161762      -2.01104367       0.00000000
Si       0.71337168      -2.25309596      -0.18925694       0.00000000
Si       3.10941891      -0.33223455       1.52596126       0.00000000
Si      -2.81276891      -2.00002756      -1.05882326       0.00000000
Si      -1.25061099      -3.49173611      -0.08052684       0.00000000
Si      -3.22464527       1.85601744       0.21993056       0.00000000
Si      -1.90650504       0.72241263      -3.24268912       0.00000000
Si       2.55420684      -2.61200539       1.22334230       0.00000000
