10
Lattice="16.28999089631971 0.0 0.0 0.0 16.28999089631971 0.0 0.0 0.0 34.31052061344573" Properties=species:S:1:pos:R:3:initial_magmoms:R:1 pbc="T T T"
Si       1.35174420       1.34895861      -1.38158251       0.00000000
Si      -1.36907676      -1.35896067      -1.37410281       0.00000000
Si      -1.37567421       1.33477002       1.41609891       0.00000000
Si       1.25019234      -1.49051871       1.43033778       0.00000000
Si      -1.86562854      -0.49855545       2.99589340       0.00000000
Si       2.70080055       2.68180641      -0.00693073       0.00000000
Si       2.70363501      -2.72506613      -0.00305364       0.00000000
Si      -2.73958704       2.69762400      -0.00212725       0.00000000
Si       2.70484047      -0.00467523      -2.73592244       0.00000000
Si      -0.00905724       2.70718623      -2.73437847       0.00000000
