10
Lattice="16.28999089631971 0.0 0.0 0.0 16.28999089631971 0.0 0.0 0.0 34.31052061344573" Properties=species:S:1:pos:R:3:initial_magmoms:R:1 pbc="T T T"
Si       1.35865116      -1.84521717       0.33442483       0.00000000
Si       0.78514542       1.89644922      -1.17640548       0.00000000
Si      -0.27450279       1.10895804       2.07269971       0.00000000
Si      -2.16156897      -0.67556259      -0.74248008       0.00000000
Si       0.30340125      -3.42881694      -0.93798154       0.00000000
Si      -1.92121002      -0.11430693      -3.03318896       0.00000000
Si       0.62586180      -2.61892701       2.41566786       0.00000000
Si      -2.53400724       1.70287515       2.05091252       0.00000000
Si      -1.60135587       3.04546437      -1.44584615       0.00000000
Si      -0.17622522      -0.68922990       3.66855154       0.00000000
