10
Lattice="16.28999089631971 0.0 0.0 0.0 16.28999089631971 0.0 0.0 0.0 34.31052061344573" Properties=species:S:1:pos:R:3:initial_magmoms:R:1 pbc="T T T"
Si      -1.07813736      -0.76154121      -2.04257505       0.00000000
Si      -0.83166966       2.22729912       0.53675408       0.00000000
Si       2.38503519       0.05492988      -0.58526919       0.00000000
Si      -0.71814465      -1.11312828       2.10203522       0.00000000
Si       3.47384250      -0.30180483       1.48880294       0.00000000
Si      -3.02373351      -0.67175073       2.29407131       0.00000000
Si      -3.39208299      -1.00752021      -1.59005335       0.00000000
Si      -0.12279402       3.77465364      -1.04925062       0.00000000
Si      -1.17641493       1.03664673      -3.63842688       0.00000000
Si      -3.19728717       2.39151861       0.31064763       0.00000000
