10
Lattice="16.28999089631971 0.0 0.0 0.0 16.28999089631971 0.0 0.0 0.0 34.31052061344573" Properties=species:S:1:pos:R:3:initial_magmoms:R:1 pbc="T T T"
Si       1.34636850      -1.34783460      -1.35313907       0.00000000
Si       1.35586557       1.35795069       1.35506046       0.00000000
Si      -1.35804843      -1.35632169       1.35482028       0.00000000
Si      -1.35656604       1.35496962      -1.36216274       0.00000000
Si       2.70796815       0.01427004      -2.70047966       0.00000000
Si       0.01088172       2.70306486      -2.72201295       0.00000000
Si      -0.03473028      -2.69571807      -2.72990781       0.00000000
Si      -0.00032580      -2.71433754       2.71187075       0.00000000
Si       2.71430496      -0.00032580       2.71190506       0.00000000
Si      -2.71554300      -0.00003258       2.71156196       0.00000000
