10
Lattice="16.28999089631971 0.0 0.0 0.0 16.28999089631971 0.0 0.0 0.0 34.31052061344573" Properties=species:S:1:pos:R:3:initial_magmoms:R:1 pbc="T T T"
Si       0.82214001       2.22661494      -0.70357193       0.00000000
Si      -1.28389635       0.52095420       2.17569995       0.00000000
Si       2.38650129      -1.14901515       0.26944067       0.00000000
Si      -1.80947691      -1.25664318      -1.73347140       0.00000000
Si      -1.05570603       0.55273599      -2.96638634       0.00000000
Si      -0.31985415      -3.15977130      -1.58734281       0.00000000
Si      -0.03451851       2.42422893       2.68689268       0.00000000
Si       1.60135587      -3.04546437       1.44584615       0.00000000
Si      -0.56021310      -3.72102696       0.70336607       0.00000000
Si      -0.93265137      -1.34258922       3.49675866       0.00000000
