10
Lattice="16.28999089631971 0.0 0.0 0.0 16.28999089631971 0.0 0.0 0.0 34.31052061344573" Properties=species:S:1:pos:R:3:initial_magmoms:R:1 pbc="T T T"
Si      -0.78514542      -1.89644922       1.17640548       0.00000000
Si       1.01449233      -0.34160130      -2.14063458       0.00000000
Si       2.32341012       0.17361882       0.79765143       0.00000000
Si      -2.38650129       1.14901515      -0.26944067       0.00000000
Si      -1.05964821      -0.78749118       3.24910519       0.00000000
Si      -0.88565472      -1.21902957      -3.28372452       0.00000000
Si       2.69263926       2.58781311       0.15045172       0.00000000
Si       0.20764863       1.22015358       3.58716693       0.00000000
Si      -1.56436128       3.37563009      -0.97301260       0.00000000
Si      -2.70635544      -2.01075615      -1.85678348       0.00000000
