10
Lattice="16.28999089631971 0.0 0.0 0.0 16.28999089631971 0.0 0.0 0.0 34.31052061344573" Properties=species:S:1:pos:R:3:initial_magmoms:R:1 pbc="T T T"
Si       0.70887564       1.54735452      -1.58600470       0.00000000
Si      -2.36561751       0.16421949      -0.22610646       0.00000000
Si       1.01665890       0.95444739       1.98452162       0.00000000
Si       0.83166966      -2.22729912      -0.53675408       0.00000000
Si       2.99848401       1.75716972      -1.11059786       0.00000000
Si       0.11352501      -3.34042740       1.56528114       0.00000000
Si      -3.24294804      -0.83484621       1.65853718       0.00000000
Si       3.03116175       2.06105967       1.24132102       0.00000000
Si      -0.24646770      -2.98884033      -2.57932914       0.00000000
Si      -3.33578475      -1.00712925      -2.01433748       0.00000000
