10
Lattice="16.28999089631971 0.0 0.0 0.0 16.28999089631971 0.0 0.0 0.0 34.31052061344573" Properties=species:S:1:pos:R:3:initial_magmoms:R:1 pbc="T T T"
Si      -1.34193762      -1.35099486      -1.38878772       0.00000000
Si       1.38025170       1.35896576      -1.38720943       0.00000000
Si       1.28627469      -1.41553584       1.45991347       0.00000000
Si      -1.49208255       1.30126149       1.51834432       0.00000000
Si      -2.69428455       2.70112865      -0.02099805       0.00000000
Si      -2.71968066      -2.69651628      -0.00854332       0.00000000
Si       2.71710684      -2.70933651      -0.01602302       0.00000000
Si       2.73119769       2.71426979      -0.01815028       0.00000000
Si      -2.69850366       0.00299736      -2.75060735       0.00000000
Si       0.01870092      -2.71368594      -2.74861734       0.00000000
