10
Lattice="16.28999089631971 0.0 0.0 0.0 16.28999089631971 0.0 0.0 0.0 34.31052061344573" Properties=species:S:1:pos:R:3:initial_magmoms:R:1 pbc="T T T"
Si      -0.68776380      -0.56092986       2.25073710       0.00000000
Si       2.10821922      -1.26700362      -0.06790056       0.00000000
Si      -2.14878132      -0.47918664      -1.19136487       0.00000000
Si      -0.04685004       2.56230297      -0.13628146       0.00000000
Si       0.26155224       1.68723675      -2.29321355       0.00000000
Si      -3.37455495       1.15484697       0.31816164       0.00000000
Si      -1.42832349       0.42694461      -3.35673735       0.00000000
Si      -3.00543984      -0.28157265       2.19909974       0.00000000
Si      -0.58442004      -3.85481673      -0.21835228       0.00000000
Si       3.20385204      -1.25633367       2.06762175       0.00000000
