10
Lattice="16.28999089631971 0.0 0.0 0.0 16.28999089631971 0.0 0.0 0.0 34.31052061344573" Properties=species:S:1:pos:R:3:initial_magmoms:R:1 pbc="T T T"
Si       0.30840228      -0.87506622      -2.15693208       0.00000000
Si      -2.21905638       0.78771307       0.37429368       0.00000000
Si       1.59532857       1.61771985       0.75809138       0.00000000
Si       0.04685004      -2.56230297       0.13628146       0.00000000
Si       3.31017687      -0.04722471       0.46868197       0.00000000
Si      -3.32770491      -1.40745600       0.45444310       0.00000000
Si      -2.06477379       1.37101105       2.78248185       0.00000000
Si       1.56219471       0.70306795      -3.34565505       0.00000000
Si      -2.10193128      -3.04148961      -1.05508341       0.00000000
Si      -0.10842624       0.73539171       3.91171033       0.00000000
