10
Lattice="16.28999089631971 0.0 0.0 0.0 16.28999089631971 0.0 0.0 0.0 34.31052061344573" Properties=species:S:1:pos:R:3:initial_magmoms:R:1 pbc="T T T"
Si      -0.28763253       1.11911878       2.01680784       0.00000000
Si       0.27337878      -2.25139203       0.54718449       0.00000000
Si      -2.06285157       0.16449642      -1.13440938       0.00000000
Si       1.74879666       1.18776484      -1.11015183       0.00000000
Si      -3.30893883       0.22937949       0.95283800       0.00000000
Si       0.85498065      -3.02712183      -1.55725247       0.00000000
Si       1.32861240       2.74130468       1.91590054       0.00000000
Si      -1.95100443       2.34045665      -2.15542242       0.00000000
Si       3.70514421       0.55214550       0.01907666       0.00000000
Si      -2.39001993       2.05650403       2.02809601       0.00000000
