10
Lattice="16.28999089631971 0.0 0.0 0.0 16.28999089631971 0.0 0.0 0.0 34.31052061344573" Properties=species:S:1:pos:R:3:initial_magmoms:R:1 pbc="T T T"
Si       0.36911511      -1.43641962       1.88093810       0.00000000
Si      -2.40028263       0.40166253       0.06862108       0.00000000
Si       1.10864853       2.19516907      -0.08014942       0.00000000
Si       1.22577363      -1.63403361      -1.50952651       0.00000000
Si      -2.57592141       1.03684221      -2.23793927       0.00000000
Si       3.37455495      -1.15484697      -0.31816164       0.00000000
Si       3.32770491       1.40745600      -0.45444310       0.00000000
Si      -0.88026273      -3.33969435       1.36974537       0.00000000
Si       2.68679115      -1.71577683       1.93257546       0.00000000
Si      -0.48586554       1.59070221       3.43819057       0.00000000
