10
Lattice="16.28999089631971 0.0 0.0 0.0 16.28999089631971 0.0 0.0 0.0 34.31052061344573" Properties=species:S:1:pos:R:3:initial_magmoms:R:1 pbc="T T T"
Si       0.19300392      -2.02010661       1.10963717       0.00000000
Si       1.65866409       1.65125214       0.17052338       0.00000000
Si      -0.55205181      -0.50834574      -2.23917445       0.00000000
Si      -1.92213855       0.98160282       1.06990556       0.00000000
Si      -0.26191062      -0.93752208       3.23026870       0.00000000
Si       0.80575227       3.00197007      -1.62628528       0.00000000
Si       0.56674539       1.32574536      -3.20621701       0.00000000
Si      -1.68192621      -3.26345715       0.23228235       0.00000000
Si      -2.93700555      -0.52082388      -2.15501069       0.00000000
Si       0.95552253       2.96779365       1.98795268       0.00000000
