10
Lattice="16.28999089631971 0.0 0.0 0.0 16.28999089631971 0.0 0.0 0.0 34.31052061344573" Properties=species:S:1:pos:R:3:initial_magmoms:R:1 pbc="T T T"
Si       2.24898111      -0.49365216       0.26964653       0.00000000
Si       0.58875318       1.42547274      -1.89071661       0.00000000
Si      -0.67934187      -2.22648462      -0.75332221       0.00000000
Si      -0.99950553       1.17292887       1.95443128       0.00000000
Si       2.70389565      -1.57623669      -1.85098500       0.00000000
Si       3.12878772       1.81973961       0.74193111       0.00000000
Si      -1.26962631       1.19534391      -3.28533712       0.00000000
Si      -2.92574916      -1.75394430      -1.50606114       0.00000000
Si       2.36727909      -1.96612155       2.10647127       0.00000000
Si       2.51089173       0.44386992      -2.96062217       0.00000000
