10
Lattice="16.28999089631971 0.0 0.0 0.0 16.28999089631971 0.0 0.0 0.0 34.31052061344573" Properties=species:S:1:pos:R:3:initial_magmoms:R:1 pbc="T T T"
Si       1.23571053      -1.32350778       1.50287713       0.00000000
Si       1.50063480       1.18175479      -1.44592647       0.00000000
Si      -1.54574181      -1.37545659      -1.24757724       0.00000000
Si      -1.47434274       1.37876605       1.47873966       0.00000000
Si       2.75667525      -2.49539409       0.13873467       0.00000000
Si       2.58295869       2.68473535       0.03975219       0.00000000
Si       2.58308901       0.03681703       2.86527661       0.00000000
Si      -0.13062951      -2.68080687       2.86033589       0.00000000
Si      -2.85594651      -2.69820459       0.16762757       0.00000000
Si      -3.00903993       2.54125303       0.13907434       0.00000000
