10
Lattice="16.28999089631971 0.0 0.0 0.0 16.28999089631971 0.0 0.0 0.0 34.31052061344573" Properties=species:S:1:pos:R:3:initial_magmoms:R:1 pbc="T T T"
Si      -1.35514881       1.35824391      -1.36065308       0.00000000
Si       1.36086660      -1.35900954      -1.35814841       0.00000000
Si       1.35835794       1.36391283       1.36418706       0.00000000
Si      -1.35635427      -1.36214699       1.37221573       0.00000000
Si       0.14239089      -2.65352632       2.72508031       0.00000000
Si      -2.70824508       2.71187775      -0.00631314       0.00000000
Si      -2.70730026      -2.71745103       0.00315657       0.00000000
Si      -2.71145421      -0.00086337      -2.71612526       0.00000000
Si       0.00307881       2.71376739      -2.71653699       0.00000000
Si       2.71612944       2.71502172       0.00082345       0.00000000
