10
Lattice="16.28999089631971 0.0 0.0 0.0 16.28999089631971 0.0 0.0 0.0 34.31052061344573" Properties=species:S:1:pos:R:3:initial_magmoms:R:1 pbc="T T T"
Si       0.91748410       1.66186670      -1.31580920       0.00000000
Si      -1.22673474       1.58922959       1.32160768       0.00000000
Si      -1.76401152      -1.08148267      -1.24121809       0.00000000
Si       1.82402455      -1.04285746       1.34524764       0.00000000
Si      -0.01602936      -1.83177533       2.57311893       0.00000000
Si      -1.73087766      -0.16683078       2.86252833       0.00000000
Si       2.18382993       0.21652179      -2.60725792       0.00000000
Si       2.16057595       2.90797025       0.21625933       0.00000000
Si      -0.54470502      -2.50671890      -2.61003707       0.00000000
Si       0.39506508       3.25159151       1.74331853       0.00000000
