10
Lattice="16.28999089631971 0.0 0.0 0.0 16.28999089631971 0.0 0.0 0.0 34.31052061344573" Properties=species:S:1:pos:R:3:initial_magmoms:R:1 pbc="T T T"
Si      -2.11846563       0.52124416      -0.86689010       0.00000000
Si       1.22692437       2.02039657      -0.25935337       0.00000000
Si       0.67695606      -1.80813528      -1.40453626       0.00000000
Si      -0.73220292      -0.19911267       2.28858162       0.00000000
Si       3.11465519      -0.94614845       0.96810619       0.00000000
Si       3.36631940       1.12065100      -0.13089471       0.00000000
Si      -2.50427799       2.61084391       0.43313625       0.00000000
Si      -0.08081469      -3.69148734      -0.27016119       0.00000000
Si      -2.57450418       1.29159826       2.46315365       0.00000000
Si      -2.11131432      -0.01184446      -3.18631690       0.00000000
