10
Lattice="16.28999089631971 0.0 0.0 0.0 16.28999089631971 0.0 0.0 0.0 34.31052061344573" Properties=species:S:1:pos:R:3:initial_magmoms:R:1 pbc="T T T"
Si      -0.00715131       0.53308862       2.31942680       0.00000000
Si       0.50414292       1.75606037      -1.54092065       0.00000000
Si      -1.59532857      -1.61771985      -0.75809138       0.00000000
Si       1.71484830      -1.66494456      -0.28940940       0.00000000
Si       1.73087766       0.16683078      -2.86252833       0.00000000
Si      -1.70375481      -0.88232814       3.15361895       0.00000000
Si       2.78827038      -1.79629083       1.78178064       0.00000000
Si       2.11131432       0.01184446       3.18631690       0.00000000
Si      -3.81438495      -0.83000678      -0.38379770       0.00000000
Si       3.55490221      -0.87602668      -1.51728069       0.00000000
