10
Lattice="16.28999089631971 0.0 0.0 0.0 16.28999089631971 0.0 0.0 0.0 34.31052061344573" Properties=species:S:1:pos:R:3:initial_magmoms:R:1 pbc="T T T"
Si      -2.34396810      -0.30134871      -0.18496812       0.00000000
Si       0.89767674       2.05837182      -0.78317238       0.00000000
Si       0.86108940      -1.77497469      -1.35691323       0.00000000
Si       1.20127347      -1.06308540       1.82844298       0.00000000
Si       0.11016927      -0.62623647      -3.28012191       0.00000000
Si       0.66613068       1.66221531      -3.15464827       0.00000000
Si       3.11526702       2.20749048       0.03283519       0.00000000
Si      -0.38890746      -3.81457133      -0.94899522       0.00000000
Si      -0.29936133      -2.24484019       3.27436945       0.00000000
Si      -3.19477851      -2.37609687       0.52395625       0.00000000
