10
Lattice="16.28999089631971 0.0 0.0 0.0 16.28999089631971 0.0 0.0 0.0 34.31052061344573" Properties=species:S:1:pos:R:3:initial_magmoms:R:1 pbc="T T T"
Si       1.30753151      -1.34402274       1.41074646       0.00000000
Si      -1.35435942      -1.35778779      -1.36466741       0.00000000
Si       1.36031111       1.36058967      -1.36278033       0.00000000
Si      -1.43304012       1.32755355       1.40954560       0.00000000
Si      -2.70351351       2.70335808      -0.02065494       0.00000000
Si      -2.71213092      -2.70889668      -0.00130380       0.00000000
Si       2.71003535      -2.72117934       0.01832183       0.00000000
Si      -2.71053450      -0.00140094      -2.72446272       0.00000000
Si       0.00323356       2.71461447      -2.72604101       0.00000000
Si       0.00476808      -2.71883358      -2.72315892       0.00000000
