10
Lattice="16.28999089631971 0.0 0.0 0.0 16.28999089631971 0.0 0.0 0.0 34.31052061344573" Properties=species:S:1:pos:R:3:initial_magmoms:R:1 pbc="T T T"
Si       1.08880731      -0.35673471       2.07407213       0.00000000
Si      -2.38503519      -0.05492988       0.58526919       0.00000000
Si       0.85753818       2.08099863      -1.05453444       0.00000000
Si       0.70094241      -1.94727402      -1.39345395       0.00000000
Si       3.34175733      -0.17272287       1.42416189       0.00000000
Si      -3.46317255      -0.81647109      -1.45730587       0.00000000
Si       0.79886160      -2.65264731       2.67358019       0.00000000
Si      -0.21822084       3.92953896       0.01142541       0.00000000
Si       1.65604140      -1.13265999      -3.44721424       0.00000000
Si      -3.21670485       2.17236924       1.12202327       0.00000000
