10
Lattice="16.28999089631971 0.0 0.0 0.0 16.28999089631971 0.0 0.0 0.0 34.31052061344573" Properties=species:S:1:pos:R:3:initial_magmoms:R:1 pbc="T T T"
Si       2.05759872      -0.97288767       0.67471676       0.00000000
Si       0.95509899       0.81461403      -2.05376029       0.00000000
Si      -1.46280942      -1.91598093      -0.44919359       0.00000000
Si      -0.70094241       1.94727402       1.39345395       0.00000000
Si       2.26839294      -2.50642827      -1.14168321       0.00000000
Si       3.45640310       0.91833246       0.78962276       0.00000000
Si      -3.36202794      -0.79889418      -1.31673559       0.00000000
Si       1.88434153      -1.12368420      -3.03209102       0.00000000
Si       2.97132273       1.89710082      -1.31978922       0.00000000
Si       0.38786490       1.59053931       3.46752608       0.00000000
