10
Lattice="16.28999089631971 0.0 0.0 0.0 16.28999089631971 0.0 0.0 0.0 34.31052061344573" Properties=species:S:1:pos:R:3:initial_magmoms:R:1 pbc="T T T"
Si       0.52580862       0.13999626       2.30515362       0.00000000
Si       0.28994571       2.29591260      -0.59950806       0.00000000
Si       1.84394885      -0.99360855      -1.15746606       0.00000000
Si      -1.84397913      -1.56458934      -0.32848911       0.00000000
Si       1.48392160      -1.99616031       2.59106334       0.00000000
Si      -1.60181199       0.41956524       3.26636339       0.00000000
Si      -1.37787336      -3.23017016       1.31001072       0.00000000
Si       2.54289573       2.47992444      -1.24941831       0.00000000
Si       3.77026253      -0.50440356       0.07417939       0.00000000
Si      -0.79886160       2.65264731      -2.67358019       0.00000000
