10
Lattice="16.28999089631971 0.0 0.0 0.0 16.28999089631971 0.0 0.0 0.0 34.31052061344573" Properties=species:S:1:pos:R:3:initial_magmoms:R:1 pbc="T T T"
Si       0.96645312       1.74509883      -1.45171325       0.00000000
Si       1.26781812      -2.13428322       0.04076092       0.00000000
Si       0.05186736       0.94187151       2.31956404       0.00000000
Si      -1.81454310      -0.16832457      -1.74434784       0.00000000
Si      -0.78128469       3.29486427      -1.00337743       0.00000000
Si       1.03627206      -2.53043973      -2.33071497       0.00000000
Si      -0.37659222      -0.91600299      -3.47088852       0.00000000
Si       3.24228015       1.74057021      -0.66833500       0.00000000
Si      -2.65621482       2.05151373      -1.88073224       0.00000000
Si       0.63987120       1.15802352      -3.71126816       0.00000000
