10
Lattice="16.28999089631971 0.0 0.0 0.0 16.28999089631971 0.0 0.0 0.0 34.31052061344573" Properties=species:S:1:pos:R:3:initial_magmoms:R:1 pbc="T T T"
Si       0.94459194      -1.75462848      -1.19897495       0.00000000
Si      -1.21518513       1.40976918      -1.40148948       0.00000000
Si       1.36700793       1.34118828       1.33783657       0.00000000
Si      -1.36159965      -1.36210464       1.34734059       0.00000000
Si      -2.40951906      -0.20847942      -2.66589978       0.00000000
Si       2.73749238      -0.81953361      -2.49889117       0.00000000
Si      -2.69708643       2.68879482      -0.02153329       0.00000000
Si       0.00534312       2.69998605       2.69687705       0.00000000
Si      -2.70796815      -0.01427004       2.70047966       0.00000000
Si       2.72120485      -0.01350441       2.69605360       0.00000000
