10
Lattice="16.28999089631971 0.0 0.0 0.0 16.28999089631971 0.0 0.0 0.0 34.31052061344573" Properties=species:S:1:pos:R:3:initial_magmoms:R:1 pbc="T T T"
Si       1.35474156      -1.32605487      -1.34991388       0.00000000
Si       1.75440042       0.87677667       1.30208498       0.00000000
Si      -1.38267891       1.40201514      -1.32040681       0.00000000
Si      -0.95511528      -1.92754683       1.15328017       0.00000000
Si       0.72303165       1.00186758       3.44436647       0.00000000
Si       2.62521495      -2.70185940       0.08028666       0.00000000
Si      -0.00902466      -2.67019164      -2.69450962       0.00000000
Si       2.68817580       2.70710478       0.04117265       0.00000000
Si       2.70904329       0.03930777      -2.69862689       0.00000000
Si      -2.72088612       0.03772764      -2.69742602       0.00000000
