10
Lattice="16.28999089631971 0.0 0.0 0.0 16.28999089631971 0.0 0.0 0.0 34.31052061344573" Properties=species:S:1:pos:R:3:initial_magmoms:R:1 pbc="T T T"
Si       0.14882544       0.63068364       2.30069325       0.00000000
Si      -2.32341012      -0.17361882      -0.79765143       0.00000000
Si       0.36922914       2.41419429      -0.64719971       0.00000000
Si       1.58648310      -2.04845121      -0.40558489       0.00000000
Si       1.46486196       2.42486424       1.48832259       0.00000000
Si      -1.30891779      -0.51522012      -2.93828601       0.00000000
Si       0.52870824      -2.20439538      -2.64825901       0.00000000
Si       3.46295331      -0.27696258      -0.54018514       0.00000000
Si      -2.11576149       1.04653476       2.78951551       0.00000000
Si      -3.10855554      -2.07006804       0.37875405       0.00000000
