10
Lattice="16.28999089631971 0.0 0.0 0.0 16.28999089631971 0.0 0.0 0.0 34.31052061344573" Properties=species:S:1:pos:R:3:initial_magmoms:R:1 pbc="T T T"
Si       1.64558322      -0.88400943       1.40024744       0.00000000
Si      -0.03267774      -0.30388995      -2.35191888       0.00000000
Si       0.24436629       2.30096250       0.58945507       0.00000000
Si      -2.01450285      -1.10661228       0.74320060       0.00000000
Si      -2.06122257       2.70464499       0.58808265       0.00000000
Si       0.86325597       3.17008287      -1.53306354       0.00000000
Si      -3.18001977       0.87055389       1.55512522       0.00000000
Si      -1.01380815      -2.77804773       2.19604610       0.00000000
Si      -2.32228611      -0.51370515      -2.82732572       0.00000000
Si       0.16737975       1.83241323      -3.33453843       0.00000000
