10
Lattice="16.28999089631971 0.0 0.0 0.0 16.28999089631971 0.0 0.0 0.0 34.31052061344573" Properties=species:S:1:pos:R:3:initial_magmoms:R:1 pbc="T T T"
Si      -1.52096472       1.17188631       1.36414246       0.00000000
Si       1.19334024      -1.54779435       1.35152304       0.00000000
Si      -1.28368458      -1.41307605      -1.46680444       0.00000000
Si       1.32434900       1.38515892      -1.58380338       0.00000000
Si       2.23327985      -0.59544837      -2.45457057       0.00000000
Si       2.56159828       2.58070157      -0.00931531       0.00000000
Si      -2.75667525       2.49539409      -0.13873467       0.00000000
Si      -0.17358624       2.53221112       2.72654194       0.00000000
Si       2.54587029      -0.18927351       2.71992001       0.00000000
Si       0.24286761      -1.92539655      -3.31157923       0.00000000
