10
Lattice="16.28999089631971 0.0 0.0 0.0 16.28999089631971 0.0 0.0 0.0 34.31052061344573" Properties=species:S:1:pos:R:3:initial_magmoms:R:1 pbc="T T T"
Si       1.02824109       0.04305447      -2.07259678       0.00000000
Si       0.57355461       1.90348650       1.25240332       0.00000000
Si      -2.35117968      -0.00589698       0.59305768       0.00000000
Si       1.29613014      -2.05690572       0.54605224       0.00000000
Si      -1.41391336      -0.34608105      -3.08976704       0.00000000
Si       2.04353163       0.67953735       2.65319973       0.00000000
Si      -1.96712827      -1.38864105       2.48346549       0.00000000
Si       0.17226675      -2.28838662       2.61192415       0.00000000
Si      -3.17942423      -0.00245979      -1.56270785       0.00000000
Si       0.48967740       3.68385318      -1.25782439       0.00000000
