10
Lattice="16.28999089631971 0.0 0.0 0.0 16.28999089631971 0.0 0.0 0.0 34.31052061344573" Properties=species:S:1:pos:R:3:initial_magmoms:R:1 pbc="T T T"
Si       1.07342208      -0.13134627       2.07119004       0.00000000
Si       1.84005391       0.78891788      -1.22787129       0.00000000
Si      -1.71484830       1.66494456       0.28940940       0.00000000
Si       0.01602936       1.83177533      -2.57311893       0.00000000
Si      -3.31017687       0.04722471      -0.46868197       0.00000000
Si       2.58032690      -1.03809654      -2.58581383       0.00000000
Si       0.31565133      -2.01469833       3.20556511       0.00000000
Si       3.35410190      -0.67114800       1.66313480       0.00000000
Si      -1.72199961       2.19803318       2.60883620       0.00000000
Si      -1.21070538       3.42100493      -1.25151125       0.00000000
