10
Lattice="16.28999089631971 0.0 0.0 0.0 16.28999089631971 0.0 0.0 0.0 34.31052061344573" Properties=species:S:1:pos:R:3:initial_magmoms:R:1 pbc="T T T"
Si      -1.65866409      -1.65125214      -0.17052338       0.00000000
Si      -0.70314156       1.31654151       1.81742929       0.00000000
Si       2.16261153      -0.77160843       0.60115497       0.00000000
Si      -0.85291182       1.35071793      -1.79680866       0.00000000
Si      -1.09191870      -0.32550678      -3.37674039       0.00000000
Si      -3.01334049       1.62913718       1.17386650       0.00000000
Si       1.21367016      -0.72918927      -3.37536797       0.00000000
Si       0.54685530       3.35613815       1.40951129       0.00000000
Si      -1.04076810      -0.27538245       3.53202990       0.00000000
Si      -3.58080264      -0.66964932       0.89938218       0.00000000
