10
Lattice="16.28999089631971 0.0 0.0 0.0 16.28999089631971 0.0 0.0 0.0 34.31052061344573" Properties=species:S:1:pos:R:3:initial_magmoms:R:1 pbc="T T T"
Si       0.48508036      -0.97876836       2.10941199       0.00000000
Si       0.59476093       2.31207228      -0.00226450       0.00000000
Si       1.83775309      -1.11140154      -1.05295616       0.00000000
Si      -2.01622374      -1.08248679      -0.73397107       0.00000000
Si      -0.91372402      -2.86998849       1.99450599       0.00000000
Si      -0.56030107       3.06986679       1.86971856       0.00000000
Si      -1.08698120      -3.02078502      -1.71230180       0.00000000
Si       2.92967179       2.21254038      -0.17289081       0.00000000
Si       2.88234934      -0.93216267       2.11171079       0.00000000
Si      -2.97132273      -1.89710082       1.31978922       0.00000000
