10
Lattice="16.28999089631971 0.0 0.0 0.0 16.28999089631971 0.0 0.0 0.0 34.31052061344573" Properties=species:S:1:pos:R:3:initial_magmoms:R:1 pbc="T T T"
Si      -0.96776188       0.85955814      -1.96517048       0.00000000
Si       1.05257183       1.74677670       1.17753914       0.00000000
Si      -1.79943154      -0.90803718       1.31611598       0.00000000
Si       1.82413954      -1.62940725      -0.04378025       0.00000000
Si      -0.45166210      -2.20157721       2.77652009       0.00000000
Si       2.27151181       0.51851070       2.78231514       0.00000000
Si      -2.88175543      -2.41101774      -0.16956269       0.00000000
Si       2.88468370       2.52380970      -0.14859895       0.00000000
Si       0.93588331      -3.50746506       1.40578314       0.00000000
Si       2.62534690      -1.71062919      -2.31091779       0.00000000
