10
Lattice="16.28999089631971 0.0 0.0 0.0 16.28999089631971 0.0 0.0 0.0 34.31052061344573" Properties=species:S:1:pos:R:3:initial_magmoms:R:1 pbc="T T T"
Si      -1.34834936      -1.34198649       1.38078993       0.00000000
Si      -1.51107669       1.14872193      -1.41898786       0.00000000
Si       1.36601424       1.37215557       1.38422099       0.00000000
Si       1.32167286      -1.57177323      -1.44798369       0.00000000
Si       0.01506825       2.24513667      -2.95751848       0.00000000
Si      -2.69492030      -0.79058628      -2.45377624       0.00000000
Si       2.71143792       2.70723510       0.01620144       0.00000000
Si      -2.69280935      -2.72839581       0.01235523       0.00000000
Si      -2.70323495       2.72479572       0.01369677       0.00000000
Si       2.72849355      -2.70733284       0.02840913       0.00000000
