10
Lattice="16.28999089631971 0.0 0.0 0.0 16.28999089631971 0.0 0.0 0.0 34.31052061344573" Properties=species:S:1:pos:R:3:initial_magmoms:R:1 pbc="T T T"
Si      -0.32007732       0.82562607      -2.18348844       0.00000000
Si       2.14157951      -1.04707233      -0.23163045       0.00000000
Si       0.19767263       1.92992517       1.57409894       0.00000000
Si      -1.87647021      -1.77148863       0.13460025       0.00000000
Si      -3.46295331       0.27696258       0.54018514       0.00000000
Si       0.98246456       0.59603481       3.32928892       0.00000000
Si       0.38770363      -1.71603747       3.33155341       0.00000000
Si      -1.19154087      -1.01257011      -3.47109438       0.00000000
Si      -1.99809135       2.70182682       2.02850773       0.00000000
Si      -2.06235540       2.56606596      -2.24929606       0.00000000
