10
Lattice="16.28999089631971 0.0 0.0 0.0 16.28999089631971 0.0 0.0 0.0 34.31052061344573" Properties=species:S:1:pos:R:3:initial_magmoms:R:1 pbc="T T T"
Si       0.47575922      -1.28928834      -1.82672745       0.00000000
Si      -2.10896597       0.07796394       0.90933224       0.00000000
Si       0.52878317       2.22707106      -0.51565310       0.00000000
Si       1.04128286      -0.86288130       1.94660847       0.00000000
Si       3.08702993       0.22116933       1.38686633       0.00000000
Si       0.41413415       2.92441338       1.68989702       0.00000000
Si      -1.39942244       1.66425156       2.64280364       0.00000000
Si      -2.51991380      -2.27144502       1.23614013       0.00000000
Si       2.81891282      -1.50763950      -1.74544578       0.00000000
Si      -0.45704201      -0.25176195      -3.69778412       0.00000000
