10
Lattice="16.28999089631971 0.0 0.0 0.0 16.28999089631971 0.0 0.0 0.0 34.31052061344573" Properties=species:S:1:pos:R:3:initial_magmoms:R:1 pbc="T T T"
Si      -1.36138855      -1.35226548      -1.36175101       0.00000000
Si      -1.38225604       1.31553153       1.37804852       0.00000000
Si       1.34956786       1.36598166      -1.36140791       0.00000000
Si       1.32819538      -1.26307773       1.54438602       0.00000000
Si       0.38803432       2.35427967       2.59572958       0.00000000
Si      -2.31603142      -0.51479658       2.63896086       0.00000000
Si      -0.57375335      -2.25523647       2.70476847       0.00000000
Si       2.03200483       0.57775743       2.89107470       0.00000000
Si       2.71466986      -2.70554094       0.04209903       0.00000000
Si       2.70717646       0.00922014      -2.71718889       0.00000000
