10
Lattice="16.28999089631971 0.0 0.0 0.0 16.28999089631971 0.0 0.0 0.0 34.31052061344573" Properties=species:S:1:pos:R:3:initial_magmoms:R:1 pbc="T T T"
Si      -0.70380945      -1.84083516      -1.34668869       0.00000000
Si       1.86282666       0.80529615      -1.32572495       0.00000000
Si      -1.64397051       1.77652224      -0.29534513       0.00000000
Si      -0.77709816       0.09653454       2.55788505       0.00000000
Si       1.59868431      -0.04180014       2.65278800       0.00000000
Si      -2.03200483      -0.57775743      -2.89107470       0.00000000
Si       0.69102180       2.13236100      -2.90449012       0.00000000
Si       2.85189030       2.49122970       0.03829056       0.00000000
Si      -3.41426087       0.73777410      -1.51302618       0.00000000
Si      -0.61335108       3.46986774      -1.55093933       0.00000000
