10
Lattice="16.28999089631971 0.0 0.0 0.0 16.28999089631971 0.0 0.0 0.0 34.450931932916035" Properties=species:S:1:pos:R:3:initial_magmoms:R:1 pbc="T T T"
Si       1.60287247       1.04993937      -1.38079412       0.00000000
Si      -1.32738739       1.12796702       1.60203813       0.00000000
Si       1.41335461      -1.44941904       1.26686483       0.00000000
Si      -1.06793005      -1.35179307      -1.69798403       0.00000000
Si       1.01573200      -2.13824169      -2.50985515       0.00000000
Si      -1.98425788       2.89035818      -0.07286376       0.00000000
Si       2.60842159      -2.39160006      -0.81300800       0.00000000
Si       1.82104444      -0.14610501      -3.40216923       0.00000000
Si       2.56546486      -0.16843860       2.97900962       0.00000000
Si      -0.10475447       2.42769774       3.14882869       0.00000000
