10
Lattice="16.28999089631971 0.0 0.0 0.0 16.28999089631971 0.0 0.0 0.0 34.450931932916035" Properties=species:S:1:pos:R:3:initial_magmoms:R:1 pbc="T T T"
Si      -1.35552348       1.35431965       1.35895222       0.00000000
Si       1.35708732       1.35580204      -1.35716077       0.00000000
Si      -1.35713619      -1.35950367      -1.35698852       0.00000000
Si       1.35703845      -1.35945658       1.35884887       0.00000000
Si      -2.71458352       2.71142326      -0.00051676       0.00000000
Si      -0.00026064       2.71267759      -2.71452825       0.00000000
Si      -2.71517485      -0.00234576      -2.71425264       0.00000000
Si       2.71484253      -0.00228712      -2.71480386       0.00000000
Si       2.71640637       2.71367128      -0.00006890       0.00000000
Si      -0.00019548      -2.71703095      -2.71459715       0.00000000
