10
Lattice="16.28999089631971 0.0 0.0 0.0 16.28999089631971 0.0 0.0 0.0 34.450931932916035" Properties=species:S:1:pos:R:3:initial_magmoms:R:1 pbc="T T T"
Si      -1.41439554       1.23027781      -1.45865327       0.00000000
Si      -0.74476251       0.48603821       2.25123186       0.00000000
Si       1.52520012      -1.49608893      -1.27430623       0.00000000
Si       1.40555007       2.03713781       0.43208383       0.00000000
Si      -1.75133790      -2.34624774      -1.10704687       0.00000000
Si      -0.66419217       2.79076207       1.83096470       0.00000000
Si       0.45387198       2.25506542      -2.66502223       0.00000000
Si       2.41561152      -2.60977107       0.62001377       0.00000000
Si      -2.36222919      -0.59228715      -2.68682968       0.00000000
Si       3.54208131       0.80590214       1.16141047       0.00000000
