10
Lattice="16.28999089631971 0.0 0.0 0.0 16.28999089631971 0.0 0.0 0.0 34.450931932916035" Properties=species:S:1:pos:R:3:initial_magmoms:R:1 pbc="T T T"
Si      -1.35213516      -1.34405532       1.37516139       0.00000000
Si      -1.31044905       1.48421448      -1.29332660       0.00000000
Si       1.36519974       1.36972836       1.37192300       0.00000000
Si       1.33573113      -1.33289667      -1.51098082       0.00000000
Si       2.20061610       0.55539126      -2.82821436       0.00000000
Si       0.34891551       2.43833607      -2.71941826       0.00000000
Si      -2.70391194      -2.68403814       0.00429603       0.00000000
Si       2.72183094      -2.67732666       0.00065112       0.00000000
Si       0.00311139      -2.69949735       2.73163315       0.00000000
Si      -2.71099809       0.01278765       2.73208101       0.00000000
