10
Lattice="16.28999089631971 0.0 0.0 0.0 16.28999089631971 0.0 0.0 0.0 34.450931932916035" Properties=species:S:1:pos:R:3:initial_magmoms:R:1 pbc="T T T"
Si       1.35632169       1.35596331      -1.35733303       0.00000000
Si       1.35179307      -1.36049193       1.35843546       0.00000000
Si      -1.35843939      -1.35889551      -1.35695407       0.00000000
Si      -1.35799956       1.35669636       1.36284518       0.00000000
Si      -0.00084708       2.71404432      -2.71428709       0.00000000
Si       2.71376739      -0.00135207      -2.71480386       0.00000000
Si      -2.71550228       2.71347417       0.00062012       0.00000000
Si      -0.00309510      -2.69956251       2.72968667       0.00000000
Si       2.71518462      -2.71567332      -0.00006890       0.00000000
Si      -2.71625976      -0.00177561      -2.71476940       0.00000000
