10
Lattice="16.28999089631971 0.0 0.0 0.0 16.28999089631971 0.0 0.0 0.0 34.450931932916035" Properties=species:S:1:pos:R:3:initial_magmoms:R:1 pbc="T T T"
Si       1.42464195      -1.23248511       1.38603067       0.00000000
Si       1.35488817       1.33907058      -1.37125121       0.00000000
Si      -1.35365013      -1.37546244      -1.37073445       0.00000000
Si      -1.24049979       1.32418152       1.64317257       0.00000000
Si      -0.44362557      -2.25727272       2.59239963       0.00000000
Si      -2.23150194      -0.48371526       3.01614633       0.00000000
Si      -2.70744687       2.69448003       0.03469211       0.00000000
Si       0.00309510       2.69956251      -2.72968667       0.00000000
Si       2.53974132       0.46907055       2.84568302       0.00000000
Si       2.72774421       2.71278999      -0.00844048       0.00000000
