10
Lattice="16.28999089631971 0.0 0.0 0.0 16.28999089631971 0.0 0.0 0.0 34.450931932916035" Properties=species:S:1:pos:R:3:initial_magmoms:R:1 pbc="T T T"
Si       1.16972463       0.55848636       1.99040370       0.00000000
Si       1.70646872       1.76867046      -0.30602780       0.00000000
Si       1.88896559      -1.66051138       1.43522663       0.00000000
Si      -0.89912396       0.87454494       3.08091411       0.00000000
Si       0.91620173      -3.34822121      -0.26733938       0.00000000
Si       1.51036970       1.46616516      -2.78112194       0.00000000
Si      -1.37712143      -3.31363754       0.29775957       0.00000000
Si      -2.71909163      -2.10191385      -1.49282862       0.00000000
Si      -1.19413586      -1.45590898      -3.25589049       0.00000000
Si      -2.85374477      -0.47695491       2.78360240       0.00000000
