10
Lattice="16.28999089631971 0.0 0.0 0.0 16.28999089631971 0.0 0.0 0.0 34.450931932916035" Properties=species:S:1:pos:R:3:initial_magmoms:R:1 pbc="T T T"
Si       1.32013671      -1.36704059       1.36270737       0.00000000
Si       1.63634190       1.12890514      -1.27275456       0.00000000
Si      -1.22263292      -1.29973072      -1.54679056       0.00000000
Si      -1.38435256       1.34070772       1.37175764       0.00000000
Si      -0.13464174       2.01271909      -2.55968298       0.00000000
Si       2.67021933      -2.59613634      -0.16981907       0.00000000
Si      -1.87950340       0.46266043      -3.22169245       0.00000000
Si      -2.78739397       2.57009774      -0.00508841       0.00000000
Si      -2.65239874      -2.70804864      -0.08968272       0.00000000
Si       2.68269747      -0.00726860       2.72152524       0.00000000
