10
Lattice="16.28999089631971 0.0 0.0 0.0 16.28999089631971 0.0 0.0 0.0 34.450931932916035" Properties=species:S:1:pos:R:3:initial_magmoms:R:1 pbc="T T T"
Si      -1.35842310       1.35732190       1.36525674       0.00000000
Si       1.35769005      -1.35935813       1.36470553       0.00000000
Si      -1.36674729      -1.38082967      -1.34968491       0.00000000
Si       1.36029645       1.37949259      -1.36572528       0.00000000
Si      -2.71366965       2.71276393       0.00878499       0.00000000
Si       2.71191033       2.71624999       0.00895725       0.00000000
Si      -2.71482624      -2.71547851       0.00954291       0.00000000
Si       2.71484253      -2.71634188       0.00502984       0.00000000
Si       0.00035838       2.71401826       2.72231416       0.00000000
Si      -2.71513575      -0.00130483       2.72207301       0.00000000
