10
Lattice="16.28999089631971 0.0 0.0 0.0 16.28999089631971 0.0 0.0 0.0 34.450931932916035" Properties=species:S:1:pos:R:3:initial_magmoms:R:1 pbc="T T T"
Si       0.67495986      -0.26225434      -2.16160568       0.00000000
Si       1.91423790       0.82734792       1.07996153       0.00000000
Si      -0.91924470      -1.96398497       1.01973437       0.00000000
Si      -1.88819019       1.62946589      -0.18566169       0.00000000
Si       0.49674726       2.12370449       2.46174095       0.00000000
Si      -2.23029648      -0.63661776       2.47778131       0.00000000
Si      -0.88935255       3.46813448       0.95010900       0.00000000
Si      -3.62253762       0.67156014       1.13234764       0.00000000
Si       1.41719742      -2.45226143      -2.70682643       0.00000000
Si      -0.86354919       0.74421191       3.82746623       0.00000000
