10
Lattice="16.28999089631971 0.0 0.0 0.0 16.28999089631971 0.0 0.0 0.0 34.450931932916035" Properties=species:S:1:pos:R:3:initial_magmoms:R:1 pbc="T T T"
Si       1.07276166      -2.05423416      -0.42381560       0.00000000
Si      -0.34117776       0.22146255       2.33418975       0.00000000
Si      -2.13434838      -0.64835829      -0.90382070       0.00000000
Si       1.03563675       1.89387540      -1.09164729       0.00000000
Si      -0.01058850       1.10314251      -3.19336202       0.00000000
Si      -2.39736672       1.24548453       2.13165260       0.00000000
Si      -3.63177405      -0.36665532       0.93534332       0.00000000
Si      -2.58445737       0.87938307      -2.70867159       0.00000000
Si       1.37681451      -2.23834374      -2.83066240       0.00000000
Si       2.88412821      -2.35810782       1.09870974       0.00000000
