10
Lattice="16.28999089631971 0.0 0.0 0.0 16.28999089631971 0.0 0.0 0.0 34.450931932916035" Properties=species:S:1:pos:R:3:initial_magmoms:R:1 pbc="T T T"
Si      -0.67495986       0.26225434       2.16160568       0.00000000
Si      -1.04910858       1.04171618      -1.79885642       0.00000000
Si       0.74223756      -2.19000709      -0.54522075       0.00000000
Si       1.14264576       0.88510575      -2.80337725       0.00000000
Si       1.94380425      -1.27954270      -2.43905844       0.00000000
Si      -3.24040680       0.10237125      -1.57557980       0.00000000
Si       1.23927804       1.08960226       3.24156721       0.00000000
Si      -1.21117779      -3.12537889      -1.66766719       0.00000000
Si      -2.56315005       1.89172023       1.97594399       0.00000000
Si       2.73688290       2.31099225       1.64703107       0.00000000
