10
Lattice="16.28999089631971 0.0 0.0 0.0 16.28999089631971 0.0 0.0 0.0 34.450931932916035" Properties=species:S:1:pos:R:3:initial_magmoms:R:1 pbc="T T T"
Si       1.72483407       1.43959617       0.70059454       0.00000000
Si      -2.19157515       0.83140902       0.21052976       0.00000000
Si       0.44439120      -1.95885621       1.28088637       0.00000000
Si       0.47340369      -0.22400379      -2.33081355       0.00000000
Si       3.55359834       0.40860207      -0.37623884       0.00000000
Si       2.72829807      -0.83652408      -2.22539364       0.00000000
Si      -3.44947266      -0.34433802      -1.47377724       0.00000000
Si      -0.90611496      -3.67020216       0.27629663       0.00000000
Si       0.38250549       1.98496908      -3.21661641       0.00000000
Si      -3.03182964       0.35872209       2.38348906       0.00000000
