10
Lattice="16.28999089631971 0.0 0.0 0.0 16.28999089631971 0.0 0.0 0.0 34.450931932916035" Properties=species:S:1:pos:R:3:initial_magmoms:R:1 pbc="T T T"
Si      -1.87867683      -0.90129312       1.13099028       0.00000000
Si      -0.00394218       2.30676174       0.55459141       0.00000000
Si       1.70641008      -1.25105571       1.09088937       0.00000000
Si       0.25365159      -0.34757973      -2.37277481       0.00000000
Si       0.06369390       1.43229825       2.86318410       0.00000000
Si       0.79785162      -3.34957261       0.57570985       0.00000000
Si      -3.52175139      -0.30255417      -0.48751541       0.00000000
Si      -2.13491853       0.65534670       2.93980302       0.00000000
Si       1.68254523      -0.33596496       3.29023809       0.00000000
Si      -1.39390272      -3.19296217       1.58023068       0.00000000
