10
Lattice="16.28999089631971 0.0 0.0 0.0 16.28999089631971 0.0 0.0 0.0 34.450931932916035" Properties=species:S:1:pos:R:3:initial_magmoms:R:1 pbc="T T T"
Si       1.77098364      -0.88381395       1.28692841       0.00000000
Si       1.41576390       0.48552345      -1.86985983       0.00000000
Si      -1.14412310       1.71048258       1.24110927       0.00000000
Si      -1.74486167      -1.55005866      -0.66200948       0.00000000
Si       0.13464174      -2.01271909       2.55968298       0.00000000
Si      -2.65680845       2.39414130      -0.36142493       0.00000000
Si       0.43315110       2.53605978      -2.52315321       0.00000000
Si      -1.08799118      -3.31244981       1.01289242       0.00000000
Si       1.21924134      -1.45363815      -3.17920268       0.00000000
Si      -2.65275224       0.55737864       2.55459457       0.00000000
