10
Lattice="16.28999089631971 0.0 0.0 0.0 16.28999089631971 0.0 0.0 0.0 34.450931932916035" Properties=species:S:1:pos:R:3:initial_magmoms:R:1 pbc="T T T"
Si       0.38102310      -2.09328129       1.03438981       0.00000000
Si      -0.89806770       1.64986749       1.48724756       0.00000000
Si      -1.17428094      -1.00111824      -1.87554423       0.00000000
Si       1.70772957       1.56936231      -0.78682527       0.00000000
Si      -2.12547033       2.78902719      -0.19575030       0.00000000
Si      -0.99497691       0.62069787      -3.55402903       0.00000000
Si      -1.57112163      -2.45993661       2.40701906       0.00000000
Si       1.03443129       2.76319125       2.39881973       0.00000000
Si       2.11657599      -1.98995382       2.59491455       0.00000000
Si       1.07774640      -3.70151154      -0.56341086       0.00000000
