10
Lattice="16.28999089631971 0.0 0.0 0.0 16.28999089631971 0.0 0.0 0.0 34.450931932916035" Properties=species:S:1:pos:R:3:initial_magmoms:R:1 pbc="T T T"
Si      -1.35161388      -1.33675740      -1.37468252       0.00000000
Si      -1.35290079       1.35472527       1.35595499       0.00000000
Si       1.36124127      -1.35889551       1.35512816       0.00000000
Si       1.35622395       1.34724816      -1.38192756       0.00000000
Si       0.06587676      -2.63311397      -2.75646195       0.00000000
Si       2.67620265      -0.14061528      -2.73116117       0.00000000
Si      -2.70824508       2.71029762      -0.00341064       0.00000000
Si      -2.71155195      -0.00223173       2.71335692       0.00000000
Si       0.00319284       2.71267596       2.71332246       0.00000000
Si      -2.71191033      -2.71624999      -0.00895725       0.00000000
