10
Lattice="16.28999089631971 0.0 0.0 0.0 16.28999089631971 0.0 0.0 0.0 34.450931932916035" Properties=species:S:1:pos:R:3:initial_magmoms:R:1 pbc="T T T"
Si      -1.37187864      -1.33179547       1.35457695       0.00000000
Si       1.35638685      -1.35710198      -1.36019245       0.00000000
Si      -1.35855342       1.35949824      -1.35981349       0.00000000
Si       1.36034532       1.35863487       1.39574584       0.00000000
Si       2.71320837      -2.71146140      -0.00082682       0.00000000
Si       2.71379204       0.00109143      -2.71631970       0.00000000
Si      -0.00114030      -2.71354298      -2.71693981       0.00000000
Si      -2.71520091      -2.71636806       0.00020671       0.00000000
Si      -2.71461447       2.71770957       0.00024116       0.00000000
Si      -2.71586880       0.00107514      -2.71690536       0.00000000
