10
Lattice="16.28999089631971 0.0 0.0 0.0 16.28999089631971 0.0 0.0 0.0 34.450931932916035" Properties=species:S:1:pos:R:3:initial_magmoms:R:1 pbc="T T T"
Si       1.74486167       1.55005866       0.66200948       0.00000000
Si       0.65687049      -1.76239115       1.67490189       0.00000000
Si       0.52273683      -0.14411763      -2.55849989       0.00000000
Si      -2.02061160       0.83632860       1.59676714       0.00000000
Si       1.98425788      -2.89035818       0.07286376       0.00000000
Si      -2.73015513       2.42404974      -0.13911294       0.00000000
Si      -0.50836203       1.86945669      -3.14464837       0.00000000
Si       1.87950340      -0.46266043       3.22169245       0.00000000
Si       0.60073857       3.26054124       1.90311875       0.00000000
Si      -2.70629028       1.50895899      -2.33846166       0.00000000
