10
Lattice="16.28999089631971 0.0 0.0 0.0 16.28999089631971 0.0 0.0 0.0 34.450931932916035" Properties=species:S:1:pos:R:3:initial_magmoms:R:1 pbc="T T T"
Si       0.49591647      -2.32961661      -0.12295544       0.00000000
Si      -1.00649394       1.00110195      -1.92980448       0.00000000
Si       2.05909740       1.21199229       0.33345076       0.00000000
Si      -1.30036554       0.01791900       2.03601676       0.00000000
Si      -1.30057731       3.15022536       0.99466786       0.00000000
Si      -0.62965737       3.26695950      -1.26545234       0.00000000
Si       0.81366921      -2.76179031       2.18804881       0.00000000
Si       3.55933961      -0.16602768       1.46550901       0.00000000
Si       2.56476506      -2.64567519      -1.21346585       0.00000000
Si      -1.36119240      -2.28237561       2.83028344       0.00000000
