10
Lattice="16.28999089631971 0.0 0.0 0.0 16.28999089631971 0.0 0.0 0.0 34.450931932916035" Properties=species:S:1:pos:R:3:initial_magmoms:R:1 pbc="T T T"
Si       0.80563824       2.13796476      -0.51989930       0.00000000
Si      -1.82876427       1.03099410       1.07683338       0.00000000
Si       1.86867870      -1.11347037       0.92252757       0.00000000
Si      -0.82530027      -1.24512615      -1.84915480       0.00000000
Si       1.87464573       2.53457739       1.56872406       0.00000000
Si      -0.82551204       1.88718021      -2.89050371       0.00000000
Si      -3.55359834      -0.40860207       0.37623884       0.00000000
Si      -3.08019465      -0.63260586      -1.95457472       0.00000000
Si       2.43931414       1.81185525      -2.13526995       0.00000000
Si       3.28226300       0.65550960       1.68155093       0.00000000
