10
Lattice="16.28999089631971 0.0 0.0 0.0 16.28999089631971 0.0 0.0 0.0 34.450931932916035" Properties=species:S:1:pos:R:3:initial_magmoms:R:1 pbc="T T T"
Si       0.11782557       0.34358868       2.31951364       0.00000000
Si      -1.72483407      -1.43959617      -0.70059454       0.00000000
Si       1.82876427      -1.03099410      -1.07683338       0.00000000
Si      -0.30349899       2.25693063      -0.75888555       0.00000000
Si       2.63440251       1.10697066      -1.59673269       0.00000000
Si      -1.25143038      -1.66359996      -3.03140810       0.00000000
Si      -1.28044287      -3.39845238       0.58029182       0.00000000
Si      -2.03905188       2.15360316      -2.31941029       0.00000000
Si      -0.10176363       2.65463469       2.75683402       0.00000000
Si       1.00346400      -2.27612025      -2.92598819       0.00000000
