10
Lattice="16.28999089631971 0.0 0.0 0.0 16.28999089631971 0.0 0.0 0.0 34.450931932916035" Properties=species:S:1:pos:R:3:initial_magmoms:R:1 pbc="T T T"
Si      -1.26671040      -1.51570305      -1.29757162       0.00000000
Si       1.33806060      -1.36954917       1.38576540       0.00000000
Si       1.87227486       0.73314774      -1.26569212       0.00000000
Si      -1.38118023       1.37960010       1.37882353       0.00000000
Si       1.11847140       0.48249351      -3.45824646       0.00000000
Si      -2.71875213      -2.69483841       0.07969883       0.00000000
Si       2.69306280       0.00654858       2.74983014       0.00000000
Si      -0.02212182      -2.70524772       2.75837397       0.00000000
Si      -0.02208924       2.72585457       2.75310298       0.00000000
Si      -2.73698064       0.00944820       2.75337859       0.00000000
