10
Lattice="16.28999089631971 0.0 0.0 0.0 16.28999089631971 0.0 0.0 0.0 34.450931932916035" Properties=species:S:1:pos:R:3:initial_magmoms:R:1 pbc="T T T"
Si      -1.32923142       1.33830495      -1.47195134       0.00000000
Si       1.38827357      -1.38256488      -1.44573417       0.00000000
Si      -1.74346983      -1.01426427       1.45527708       0.00000000
Si       1.02145698       1.60658496       2.41663087       0.00000000
Si      -2.63202417       2.64523536       0.03686252       0.00000000
Si      -3.38401944       0.83279367       1.45496702       0.00000000
Si      -0.56770650      -1.12409145       3.65810535       0.00000000
Si      -2.68641648      -0.02435355      -2.85054060       0.00000000
Si       0.02310409       2.69109171      -2.84819794       0.00000000
Si       2.80895705       2.73970107       0.08774657       0.00000000
