10
Lattice="16.28999089631971 0.0 0.0 0.0 16.28999089631971 0.0 0.0 0.0 34.450931932916035" Properties=species:S:1:pos:R:3:initial_magmoms:R:1 pbc="T T T"
Si       1.63367590      -0.32610951      -1.61537065       0.00000000
Si      -0.80563824      -2.13796476       0.51989930       0.00000000
Si       1.06900749       0.39661263       2.08862337       0.00000000
Si      -0.99274518       2.19652731      -0.00365180       0.00000000
Si      -1.63115028      -0.25078455      -2.37060440       0.00000000
Si      -1.13927373       2.00801943      -2.28916235       0.00000000
Si      -2.93790150       1.14995997       0.83784713       0.00000000
Si      -2.63440251      -1.10697066       1.59673269       0.00000000
Si       1.12386243       1.69761348      -2.63911512       0.00000000
Si       2.47662476      -1.48245516       2.20145023       0.00000000
