10
Lattice="16.28999089631971 0.0 0.0 0.0 16.28999089631971 0.0 0.0 0.0 34.450931932916035" Properties=species:S:1:pos:R:3:initial_magmoms:R:1 pbc="T T T"
Si       0.84033594      -0.62115399      -2.09051817       0.00000000
Si      -0.63628740       2.21552864       0.39532466       0.00000000
Si       1.22704425      -1.46932542       1.41007743       0.00000000
Si      -2.23081776      -0.93835287      -0.26292966       0.00000000
Si      -0.23561856      -3.11435478       0.63496548       0.00000000
Si       0.39672666      -2.95072173      -1.68988806       0.00000000
Si      -1.43395983      -0.48798324       3.09593473       0.00000000
Si      -2.19375801      -2.28305979       1.63697140       0.00000000
Si      -1.74198744       1.88902980       2.50709907       0.00000000
Si      -2.44765395       2.51940230      -1.12720067       0.00000000
