10
Lattice="16.28999089631971 0.0 0.0 0.0 16.28999089631971 0.0 0.0 0.0 34.450931932916035" Properties=species:S:1:pos:R:3:initial_magmoms:R:1 pbc="T T T"
Si      -1.46266281      -1.64502936      -0.77511195       0.00000000
Si      -0.39710133       0.59289084       2.23338626       0.00000000
Si       2.16616179      -0.65795310      -0.62025493       0.00000000
Si      -1.22704425       1.46932542      -1.41007743       0.00000000
Si      -2.66100408       0.98134218       1.68585730       0.00000000
Si      -3.42080226      -0.81373437       0.22689396       0.00000000
Si      -0.83031759      -1.48139631      -3.09996549       0.00000000
Si      -0.38670831       0.84817143      -3.50059560       0.00000000
Si       2.65447898      -2.34023769       0.92979672       0.00000000
Si       3.42797705       1.24765110      -0.38523054       0.00000000
