10
Lattice="16.28999089631971 0.0 0.0 0.0 16.28999089631971 0.0 0.0 0.0 34.450931932916035" Properties=species:S:1:pos:R:3:initial_magmoms:R:1 pbc="T T T"
Si       1.50024221      -1.37801997       1.13205826       0.00000000
Si      -0.09484852       1.86290811       1.41645086       0.00000000
Si       1.53161675       0.68502708      -1.71210892       0.00000000
Si      -2.05909740      -1.21199229      -0.33345076       0.00000000
Si       2.11466843       2.08231812       2.12390114       0.00000000
Si       0.27208861      -2.43647901       2.82656274       0.00000000
Si      -2.68875477       2.05496721      -1.59890310       0.00000000
Si      -3.06559134      -0.21089034      -2.26325524       0.00000000
Si       3.11766002      -0.05312169       2.26435767       0.00000000
Si      -1.56318093      -3.54160890      -0.45640620       0.00000000
