10
Lattice="16.28999089631971 0.0 0.0 0.0 16.28999089631971 0.0 0.0 0.0 34.450931932916035" Properties=species:S:1:pos:R:3:initial_magmoms:R:1 pbc="T T T"
Si       1.02438036       0.45002754       2.06578239       0.00000000
Si      -0.31402233       1.77503985      -1.53296397       0.00000000
Si       1.28049174      -1.90977444      -0.59073046       0.00000000
Si      -1.66014485      -1.72108737       0.12240423       0.00000000
Si      -1.94620963      -1.54157157       2.41439156       0.00000000
Si       0.33607899      -1.57284837       3.09951763       0.00000000
Si      -2.63986685       2.08788930      -1.11273127       0.00000000
Si       3.30906915       0.42658623       1.31333916       0.00000000
Si      -0.25252758      -3.60015516       0.23523109       0.00000000
Si       1.11404052      -2.22439950      -2.87413950       0.00000000
