10
Lattice="16.28999089631971 0.0 0.0 0.0 16.28999089631971 0.0 0.0 0.0 34.450931932916035" Properties=species:S:1:pos:R:3:initial_magmoms:R:1 pbc="T T T"
Si      -1.35008262       1.22909575       1.53252645       0.00000000
Si      -1.15211025      -1.28098044      -1.71214479       0.00000000
Si       1.35203742      -1.45266075       1.52155037       0.00000000
Si       0.98389971       1.98997567      -1.39591951       0.00000000
Si      -2.52792781      -2.62814715       0.09336897       0.00000000
Si       2.68527618       2.51794760       0.19181601       0.00000000
Si      -2.67021933       2.59613634       0.16981907       0.00000000
Si       2.68763823      -2.78633934       0.14643032       0.00000000
Si       0.01247814       2.58886774       2.89134431       0.00000000
Si      -2.56546486       0.16843860      -2.97900962       0.00000000
