10
Lattice="16.28999089631971 0.0 0.0 0.0 16.28999089631971 0.0 0.0 0.0 34.450931932916035" Properties=species:S:1:pos:R:3:initial_magmoms:R:1 pbc="T T T"
Si      -1.33546560       1.35811752      -1.37011433       0.00000000
Si       1.38636045      -1.36704051      -1.37125121       0.00000000
Si       0.94783365       1.82256497       1.22817641       0.00000000
Si       0.61089129      -1.75396059       1.57978282       0.00000000
Si      -1.74312285      -0.94996764       1.50182032       0.00000000
Si       2.36222919       0.59228715       2.68682968       0.00000000
Si      -2.66819516       2.67078527       0.18699976       0.00000000
Si      -3.54454829       0.67404829       1.17715455       0.00000000
Si      -2.61789080      -2.75301000       0.10331840       0.00000000
Si      -2.67984766      -0.00749340      -2.73512992       0.00000000
