10
Lattice="16.28999089631971 0.0 0.0 0.0 16.28999089631971 0.0 0.0 0.0 34.450931932916035" Properties=species:S:1:pos:R:3:initial_magmoms:R:1 pbc="T T T"
Si      -0.87476795      -1.80304236      -1.39850191       0.00000000
Si      -1.80142543       1.62401593      -0.32466576       0.00000000
Si       2.35401414      -0.80399295       0.07796250       0.00000000
Si       1.74312285       0.94996764      -1.50182032       0.00000000
Si       0.30891216      -0.26829630       2.66388535       0.00000000
Si      -2.29942702      -0.43205967      -2.85780975       0.00000000
Si       0.40765725       2.30808516      -2.87193464       0.00000000
Si      -3.32638120       0.97801106       1.43839611       0.00000000
Si      -1.98441100      -0.23371263       3.22898430       0.00000000
Si       2.69095650       2.77253261      -0.27364391       0.00000000
