10
Lattice="16.28999089631971 0.0 0.0 0.0 16.28999089631971 0.0 0.0 0.0 34.642051614445585" Properties=species:S:1:pos:R:3:initial_magmoms:R:1 pbc="T T T"
Si       1.35635427       1.34264623       1.38178907       0.00000000
Si      -1.35916592      -1.37686079       1.37995304       0.00000000
Si       1.38621384      -1.28687483      -1.48529958       0.00000000
Si      -1.35279816       1.46026818      -1.39050155       0.00000000
Si       2.70541062       2.69934422      -0.01635106       0.00000000
Si      -2.71238126       2.70265109       0.04690190       0.00000000
Si       2.70637173      -2.71236386       0.01125867       0.00000000
Si      -2.71921740      -2.71835858      -0.00298615       0.00000000
Si      -0.00141723       2.69940938       2.74304925       0.00000000
Si      -2.71485518      -0.01561688       2.74294532       0.00000000
