10
Lattice="16.28999089631971 0.0 0.0 0.0 16.28999089631971 0.0 0.0 0.0 34.642051614445585" Properties=species:S:1:pos:R:3:initial_magmoms:R:1 pbc="T T T"
Si      -0.00905724      -0.56725038       2.30612266       0.00000000
Si       0.29859570       2.34033610      -0.29757539       0.00000000
Si       1.44594927      -1.17446013      -1.48340812       0.00000000
Si      -2.08304140      -1.10038950      -0.37174406       0.00000000
Si      -2.10943608       0.38025747       2.79894077       0.00000000
Si       2.43071235       2.72228284       0.81876535       0.00000000
Si      -3.63301928      -0.02249649       1.04362703       0.00000000
Si      -1.75705080      -3.43769499       0.23456146       0.00000000
Si       2.16912753      -3.21861078      -0.54710223       0.00000000
Si       0.71083044       2.82435761      -2.62413688       0.00000000
