10
Lattice="16.28999089631971 0.0 0.0 0.0 16.28999089631971 0.0 0.0 0.0 34.642051614445585" Properties=species:S:1:pos:R:3:initial_magmoms:R:1 pbc="T T T"
Si       0.72202656      -1.74123810      -1.34664122       0.00000000
Si      -1.58132147       1.30600188      -1.08606357       0.00000000
Si      -0.69194707      -0.93142962       2.02676900       0.00000000
Si       2.07504138       1.11620709       0.30817586       0.00000000
Si       1.63890921      -3.30279750       0.13209022       0.00000000
Si       0.15186027       0.55170972       3.66267152       0.00000000
Si       2.12089773      -0.75201156      -2.96515342       0.00000000
Si       0.51195072      -3.00576564       2.24106486       0.00000000
Si      -2.39161865       2.95767756       0.42045082       0.00000000
Si      -0.67263691       2.46295026      -2.89140045       0.00000000
