10
Lattice="16.28999089631971 0.0 0.0 0.0 16.28999089631971 0.0 0.0 0.0 34.642051614445585" Properties=species:S:1:pos:R:3:initial_magmoms:R:1 pbc="T T T"
Si      -1.34905635      -1.35669799       1.39814013       0.00000000
Si       1.37007045       1.35695700       1.39949117       0.00000000
Si       1.28085012      -1.47791514      -1.52073842       0.00000000
Si      -1.44181161       1.46350989      -1.41740805       0.00000000
Si      -2.70541062      -2.69934422       0.01635106       0.00000000
Si       2.69892720       2.70904329       0.03022174       0.00000000
Si      -2.70695817       2.71088406       0.07447006       0.00000000
Si       2.71844262      -2.71851497       0.01374597       0.00000000
Si      -2.70682785       0.00006516       2.75940031       0.00000000
Si       0.00879660       2.71326240       2.75877675       0.00000000
