10
Lattice="16.28999089631971 0.0 0.0 0.0 16.28999089631971 0.0 0.0 0.0 34.642051614445585" Properties=species:S:1:pos:R:3:initial_magmoms:R:1 pbc="T T T"
Si       1.39295790      -1.71165124       0.83636352       0.00000000
Si       1.57475430       0.98340612      -1.55885855       0.00000000
Si       0.06654465       1.27937913       2.06345496       0.00000000
Si      -2.13211665      -0.38194674      -1.11634074       0.00000000
Si       3.03520167      -0.22602864       1.60766923       0.00000000
Si       1.46611629      -0.60517839      -3.31638938       0.00000000
Si      -2.43071235      -2.72228284      -0.81876535       0.00000000
Si       3.60504216       1.06853766      -0.30876478       0.00000000
Si       0.84696597       3.23647602      -1.84902054       0.00000000
Si      -1.71988191       0.10207477      -3.44290222       0.00000000
