10
Lattice="16.28999089631971 0.0 0.0 0.0 16.28999089631971 0.0 0.0 0.0 34.642051614445585" Properties=species:S:1:pos:R:3:initial_magmoms:R:1 pbc="T T T"
Si       1.50884496      -1.20846515      -1.34504769       0.00000000
Si       1.58096079       0.41853185       1.72223056       0.00000000
Si      -0.70991820       1.77629358      -1.43380068       0.00000000
Si      -2.40259581      -0.29788673       0.41508129       0.00000000
Si      -1.86250086      -1.03658936      -2.53534925       0.00000000
Si       0.48870000       3.37445661      -0.14809485       0.00000000
Si      -2.39316390      -2.39612018      -0.63412311       0.00000000
Si      -2.89196370       1.87113396      -0.54800292       0.00000000
Si       0.22470426      -1.79254310      -3.15980722       0.00000000
Si       1.55121525       2.75305827       1.91989822       0.00000000
