10
Lattice="16.28999089631971 0.0 0.0 0.0 16.28999089631971 0.0 0.0 0.0 34.642051614445585" Properties=species:S:1:pos:R:3:initial_magmoms:R:1 pbc="T T T"
Si       1.33076268       1.34780202      -1.35706849       0.00000000
Si      -1.21767750       1.51700625       1.30534788       0.00000000
Si      -1.37922543      -1.37148768      -1.35166433       0.00000000
Si       1.40967144      -1.33726239       1.38059045       0.00000000
Si      -1.78720848      -0.43570863       2.48896352       0.00000000
Si      -0.47763909      -2.51825644       2.34194257       0.00000000
Si       2.66668929      -2.70350795      -0.03547348       0.00000000
Si       2.69053785      -0.00736308      -2.71562659       0.00000000
Si       2.68454313       2.73012255       0.03568133       0.00000000
Si      -0.02624319       2.70736542      -2.71583444       0.00000000
