10
Lattice="16.28999089631971 0.0 0.0 0.0 16.28999089631971 0.0 0.0 0.0 34.642051614445585" Properties=species:S:1:pos:R:3:initial_magmoms:R:1 pbc="T T T"
Si      -1.33076268      -1.34780202       1.35706849       0.00000000
Si       1.35977517      -1.35516510      -1.35855810       0.00000000
Si      -1.35700587       1.35956340      -1.35876595       0.00000000
Si       1.35378045       1.38232053       1.39274982       0.00000000
Si      -2.54844018       0.16920423       2.66241636       0.00000000
Si       0.07890876      -2.68506441       2.73765894       0.00000000
Si       2.71406061      -2.71081890      -0.00225173       0.00000000
Si      -2.71042794       2.71467963      -0.00058892       0.00000000
Si      -2.70998811      -2.71928970       0.00540416       0.00000000
Si      -2.71394658       0.00104256      -2.71534945       0.00000000
