10
Lattice="16.28999089631971 0.0 0.0 0.0 16.28999089631971 0.0 0.0 0.0 34.642051614445585" Properties=species:S:1:pos:R:3:initial_magmoms:R:1 pbc="T T T"
Si       0.03391578      -1.38329793      -1.93784281       0.00000000
Si      -1.24595694       1.94590566      -0.68466589       0.00000000
Si      -1.11141783      -0.52144290       2.12730029       0.00000000
Si       2.39140458       0.38649654       0.42720602       0.00000000
Si       1.00079244       0.41317956      -3.27575423       0.00000000
Si       2.90167254       0.94288149      -1.88168801       0.00000000
Si      -1.45497393       3.09672900       1.36794610       0.00000000
Si      -0.38362950      -2.77451280       2.41746228       0.00000000
Si      -0.28269666       0.92975175       3.84097426       0.00000000
Si      -3.44346165      -0.08374689       2.00227706       0.00000000
