10
Lattice="16.28999089631971 0.0 0.0 0.0 16.28999089631971 0.0 0.0 0.0 34.642051614445585" Properties=species:S:1:pos:R:3:initial_magmoms:R:1 pbc="T T T"
Si      -2.33204382       0.43769601      -0.12502323       0.00000000
Si       0.72778833      -2.25306990       0.29016199       0.00000000
Si       0.82872117       1.45119465       1.71367397       0.00000000
Si       1.11141783       0.52144290      -2.12730029       0.00000000
Si       2.46177738      -0.02275713       2.58835162       0.00000000
Si      -0.34355610       3.61817190      -0.75935420       0.00000000
Si      -2.42268138       2.82651048       0.05660514       0.00000000
Si      -0.13453911       2.46734856      -2.81196619       0.00000000
Si      -0.84696597      -3.23647602       1.84902054       0.00000000
Si       2.75807619      -2.16793836       1.54025576       0.00000000
