10
Lattice="16.28999089631971 0.0 0.0 0.0 16.28999089631971 0.0 0.0 0.0 34.642051614445585" Properties=species:S:1:pos:R:3:initial_magmoms:R:1 pbc="T T T"
Si      -1.40095629       1.25191908       1.38562395       0.00000000
Si       0.69962292       1.95716205      -1.18715675       0.00000000
Si      -0.98960121      -1.89706824      -1.08128850       0.00000000
Si       1.34820927      -1.44612846       1.38480293       0.00000000
Si      -0.01254330       2.60498277       2.74876519       0.00000000
Si      -2.81031822       2.57132763      -0.10066293       0.00000000
Si       2.67998193       2.72763018      -0.11402091       0.00000000
Si       2.56756464      -2.87508726      -0.04899082       0.00000000
Si       2.70326034      -0.11593593       2.74942339       0.00000000
Si      -2.72706492      -0.11143989       2.75094764       0.00000000
