10
Lattice="16.28999089631971 0.0 0.0 0.0 16.28999089631971 0.0 0.0 0.0 34.642051614445585" Properties=species:S:1:pos:R:3:initial_magmoms:R:1 pbc="T T T"
Si      -1.35617508       1.35488817       1.35672207       0.00000000
Si       1.35651717      -1.35837423       1.35686064       0.00000000
Si      -1.36591650      -1.34006427      -1.37454888       0.00000000
Si       1.35156501       1.35312885      -1.38841263       0.00000000
Si       2.71182888       2.71337058      -0.00311779       0.00000000
Si       0.00048870       2.71300895       2.71427554       0.00000000
Si       2.71256193      -2.71528236      -0.00471132       0.00000000
Si       2.71425609      -0.00130320       2.71406769       0.00000000
Si      -2.71471221      -0.00149868       2.71410233       0.00000000
Si      -2.71508688      -2.71463076      -0.00450347       0.00000000
