10
Lattice="16.28999089631971 0.0 0.0 0.0 16.28999089631971 0.0 0.0 0.0 34.642051614445585" Properties=species:S:1:pos:R:3:initial_magmoms:R:1 pbc="T T T"
Si       1.35666378       1.35802321      -1.35682599       0.00000000
Si       1.35539316      -1.35967743       1.35717241       0.00000000
Si      -1.35824391      -1.35777150      -1.35720706       0.00000000
Si      -1.35985662       1.36374993       1.35907773       0.00000000
Si      -0.02270826       2.73501348       2.67987597       0.00000000
Si       2.71370223       0.00034209      -2.71417162       0.00000000
Si       2.71381626      -2.71453302       0.00000000       0.00000000
Si      -0.00006516       2.71465424      -2.71396377       0.00000000
Si      -0.00089595      -2.71423980      -2.71437947       0.00000000
Si       2.71339272       2.71547525       0.00090069       0.00000000
