10
Lattice="16.28999089631971 0.0 0.0 0.0 16.28999089631971 0.0 0.0 0.0 34.642051614445585" Properties=species:S:1:pos:R:3:initial_magmoms:R:1 pbc="T T T"
Si      -1.36432008       1.36894644      -1.25948177       0.00000000
Si       1.08813942       1.64452437       1.20395053       0.00000000
Si      -0.97331121      -1.58395815       1.38422787       0.00000000
Si       1.40682069      -1.36080144      -1.24662957       0.00000000
Si       0.72979200      -3.25839096       1.68596031       0.00000000
Si      -2.69065188       0.00664632      -2.61779738       0.00000000
Si       0.02088378      -2.71060713      -2.61599599       0.00000000
Si       0.01858689       2.72828178      -2.61852486       0.00000000
Si       2.73383667       0.00485442      -2.62043017       0.00000000
Si      -2.97430965       2.44824039       0.16804869       0.00000000
