10
Lattice="16.28999089631971 0.0 0.0 0.0 16.28999089631971 0.0 0.0 0.0 34.642051614445585" Properties=species:S:1:pos:R:3:initial_magmoms:R:1 pbc="T T T"
Si       2.10139371      -0.97160076       0.51879965       0.00000000
Si      -1.03140135      -0.07687251       2.16786616       0.00000000
Si       0.72594756       2.17429146      -0.75446966       0.00000000
Si      -1.89034047      -0.65205612      -1.35571745       0.00000000
Si      -0.80335764       2.20364604       2.66421775       0.00000000
Si      -0.48628908       2.34686772      -2.78536107       0.00000000
Si      -0.23579775       3.57718626       0.84651365       0.00000000
Si      -2.61351873       1.39209453      -2.29202334       0.00000000
Si       3.63734523      -0.08646732      -1.14308442       0.00000000
Si       1.78725735      -3.30465456       0.78152512       0.00000000
