10
Lattice="16.28999089631971 0.0 0.0 0.0 16.28999089631971 0.0 0.0 0.0 34.642051614445585" Properties=species:S:1:pos:R:3:initial_magmoms:R:1 pbc="T T T"
Si      -0.96174531       1.40289480       1.60098331       0.00000000
Si      -1.21223664       0.17257626      -2.03089141       0.00000000
Si      -0.72594756      -2.17429146       0.75446966       0.00000000
Si       2.41212546       0.05178591      -0.21575082       0.00000000
Si       1.37544615      -3.14589222       1.27326932       0.00000000
Si      -0.88858692       2.50936766      -2.55176959       0.00000000
Si       2.91139767      -2.26075878      -0.38861475       0.00000000
Si      -1.52930520       0.02935458       3.41868742       0.00000000
Si      -3.33946629      -0.78219693      -1.53755368       0.00000000
Si       0.68049846       2.88851741       2.37228902       0.00000000
