10
Lattice="16.28999089631971 0.0 0.0 0.0 16.28999089631971 0.0 0.0 0.0 34.642051614445585" Properties=species:S:1:pos:R:3:initial_magmoms:R:1 pbc="T T T"
Si      -0.98328069      -2.16515277       0.15900711       0.00000000
Si      -1.95567966       1.17593667      -0.86903099       0.00000000
Si       1.92262725      -0.39229578      -1.60049832       0.00000000
Si       0.70975530       0.20535174       2.51349010       0.00000000
Si      -3.26818125      -1.20977685       0.97278400       0.00000000
Si       0.83469960      -3.45126456       1.04459701       0.00000000
Si       3.35345940      -1.67387895      -0.14369531       0.00000000
Si      -1.35125550       3.41600390      -1.55061374       0.00000000
Si       2.70425403      -1.55616741       2.51816678       0.00000000
Si      -2.93008230       0.07641639      -2.75258968       0.00000000
