10
Lattice="16.28999089631971 0.0 0.0 0.0 16.28999089631971 0.0 0.0 0.0 34.642051614445585" Properties=species:S:1:pos:R:3:initial_magmoms:R:1 pbc="T T T"
Si       1.67215221      -0.35452320       1.54465530       0.00000000
Si       0.07625349       1.57216745      -1.73646845       0.00000000
Si      -2.17373760       0.44535557       0.85978156       0.00000000
Si      -0.92681955      -2.21029629      -0.46077419       0.00000000
Si      -0.82881891      -0.15010974      -3.20168948       0.00000000
Si      -2.49738732      -1.89143583       1.38065974       0.00000000
Si      -2.46531231      -1.32939825      -1.99018698       0.00000000
Si       3.55620474      -1.18842459       0.49441164       0.00000000
Si       2.01153807       1.53859376       2.84127338       0.00000000
Si      -2.06509959       2.03394008       2.61731239       0.00000000
