10
Lattice="16.28999089631971 0.0 0.0 0.0 16.28999089631971 0.0 0.0 0.0 34.642051614445585" Properties=species:S:1:pos:R:3:initial_magmoms:R:1 pbc="T T T"
Si      -0.81720414      -1.62966856      -1.51749592       0.00000000
Si      -1.61512092       1.73243173      -0.32930753       0.00000000
Si       1.76995737       1.39276894      -0.87731045       0.00000000
Si      -0.30646377      -1.44044569       1.96025623       0.00000000
Si      -0.27170091       1.89472900       3.14698965       0.00000000
Si       2.08031445       1.22832139       2.80233569       0.00000000
Si      -2.58761763      -1.13441931       2.56160794       0.00000000
Si      -1.73407050      -0.48633143      -3.36682824       0.00000000
Si      -2.65973346      -2.76141631      -0.50567031       0.00000000
Si      -0.62494956       3.83996677       0.03273676       0.00000000
