10
Lattice="16.28999089631971 0.0 0.0 0.0 16.28999089631971 0.0 0.0 0.0 34.642051614445585" Properties=species:S:1:pos:R:3:initial_magmoms:R:1 pbc="T T T"
Si       2.01520332       1.00160694       0.58139788       0.00000000
Si      -0.98546355      -1.31686731       1.68703421       0.00000000
Si      -1.63305621       1.47395178      -0.87467765       0.00000000
Si       0.29629881      -2.14518123      -1.04809586       0.00000000
Si      -0.27354168      -3.43974753       0.86833815       0.00000000
Si      -2.46177738       0.02275713      -2.58835162       0.00000000
Si      -1.73398905      -2.23031277      -2.29818963       0.00000000
Si       3.66160104       0.42412644      -1.03884642       0.00000000
Si       2.55777435       0.62117028       2.78747424       0.00000000
Si       2.19235707       3.32708589       0.15381080       0.00000000
