10
Lattice="16.28999089631971 0.0 0.0 0.0 16.28999089631971 0.0 0.0 0.0 34.642051614445585" Properties=species:S:1:pos:R:3:initial_magmoms:R:1 pbc="T T T"
Si       0.54257103      -0.38043666       2.20607636       0.00000000
Si      -2.01520332      -1.00160694      -0.58139788       0.00000000
Si       0.17715375       2.32547895      -0.42758708       0.00000000
Si       1.64639772      -0.57748050      -1.62024430       0.00000000
Si       1.29191103       1.68003657      -2.41562625       0.00000000
Si       1.80664245       1.41680646       2.98784398       0.00000000
Si       3.48878043      -1.64677239      -0.31960775       0.00000000
Si      -1.17962406      -0.11505627       3.68650527       0.00000000
Si      -1.71890451      -3.14678817      -1.62949373       0.00000000
Si      -3.00066687      -2.31847425       1.10563634       0.00000000
