10
Lattice="16.28999089631971 0.0 0.0 0.0 16.28999089631971 0.0 0.0 0.0 34.642051614445585" Properties=species:S:1:pos:R:3:initial_magmoms:R:1 pbc="T T T"
Si       1.23417927      -1.39906665       1.43190922       0.00000000
Si      -1.47936006       1.32421410       1.38843688       0.00000000
Si      -1.18856727      -1.74133584      -1.21799928       0.00000000
Si       1.92490785       0.71540793      -1.43376399       0.00000000
Si       2.62635525       2.58574428       0.04187880       0.00000000
Si       2.45110743      -2.76599313      -0.01900118       0.00000000
Si       2.59781517      -0.04857678       2.78170634       0.00000000
Si       0.47162808      -3.56545746      -1.30295553       0.00000000
Si      -0.12113244       2.66854635       2.77522827       0.00000000
Si      -0.11824911      -2.76021018       2.77671788       0.00000000
