10
Lattice="16.28999089631971 0.0 0.0 0.0 16.28999089631971 0.0 0.0 0.0 34.642051614445585" Properties=species:S:1:pos:R:3:initial_magmoms:R:1 pbc="T T T"
Si      -1.36363590      -1.35048987      -1.34979712       0.00000000
Si       1.35430173      -1.35553977       1.35488604       0.00000000
Si       1.36902789       1.34281728      -1.35472668       0.00000000
Si      -1.35767376       1.35700587       1.35537103       0.00000000
Si       0.02854008       2.63432106      -2.73982754       0.00000000
Si      -2.59781517       0.04857678      -2.78170634       0.00000000
Si       2.71125873      -2.71096551      -0.00765590       0.00000000
Si       2.71321353       0.00096111       2.71237023       0.00000000
Si      -0.00195480      -2.71358820       2.71237023       0.00000000
Si      -2.71606428      -2.71163340      -0.00498846       0.00000000
