10
Lattice="16.28999089631971 0.0 0.0 0.0 16.28999089631971 0.0 0.0 0.0 34.642051614445585" Properties=species:S:1:pos:R:3:initial_magmoms:R:1 pbc="T T T"
Si      -1.64639772       0.57748050       1.62024430       0.00000000
Si      -0.85776624      -1.02390795      -1.98343177       0.00000000
Si      -0.35448669       2.25751707      -0.79538195       0.00000000
Si       1.84238271      -1.06929189       1.30063655       0.00000000
Si      -1.46924397       2.90295945       1.19265722       0.00000000
Si      -1.31895243      -3.14978553      -1.03538222       0.00000000
Si      -3.66160104      -0.42412644       1.03884642       0.00000000
Si       0.95187357      -1.00356174      -3.58749823       0.00000000
Si       1.70479737       3.27121119      -1.44689538       0.00000000
Si       3.08255670       0.60220872       2.41721979       0.00000000
