10
Lattice="16.28999089631971 0.0 0.0 0.0 16.28999089631971 0.0 0.0 0.0 34.642051614445585" Properties=species:S:1:pos:R:3:initial_magmoms:R:1 pbc="T T T"
Si      -1.66061889      -0.57674745       1.52047514       0.00000000
Si       1.25387388       1.33630128       1.47370834       0.00000000
Si      -1.39644396       1.51938459      -1.19795746       0.00000000
Si       1.26169308      -1.96882569      -0.67039336       0.00000000
Si       2.73305053       2.14571880      -0.21131663       0.00000000
Si      -0.38470464      -1.46121300       3.22909136       0.00000000
Si       1.70683362      -0.24653286       3.17809823       0.00000000
Si      -2.42310492       1.61165115       2.17212713       0.00000000
Si      -0.29600559       2.70632286       2.64419464       0.00000000
Si      -3.29010759       0.33192504      -1.89495592       0.00000000
