10
Lattice="16.28999089631971 0.0 0.0 0.0 16.28999089631971 0.0 0.0 0.0 34.642051614445585" Properties=species:S:1:pos:R:3:initial_magmoms:R:1 pbc="T T T"
Si       1.27591425      -0.88446555       1.70861622       0.00000000
Si       1.66061889       0.57674745      -1.52047514       0.00000000
Si      -1.26407142      -1.79724312      -0.78176762       0.00000000
Si      -0.76248603       2.18839860       0.65165200       0.00000000
Si      -2.98626651      -1.53186273       0.69866129       0.00000000
Si       0.26417493       2.09613204      -2.71843259       0.00000000
Si       2.91449277       1.91304873      -0.04676680       0.00000000
Si       0.77970456      -3.21623244       1.55290012       0.00000000
Si       1.36461330       3.28307031       1.12371950       0.00000000
Si       0.09529650      -0.64426950       3.67174774       0.00000000
