10
Lattice="16.28999089631971 0.0 0.0 0.0 16.28999089631971 0.0 0.0 0.0 34.642051614445585" Properties=species:S:1:pos:R:3:initial_magmoms:R:1 pbc="T T T"
Si       1.87396643      -1.15002513      -0.77508170       0.00000000
Si       0.84609513       0.98942202       1.96143406       0.00000000
Si      -0.45295974       1.58283414      -1.70438989       0.00000000
Si      -2.09153826      -1.21468014       0.05099313       0.00000000
Si       0.76786729      -2.77646760      -2.03633022       0.00000000
Si      -2.00283921       2.95285572      -0.53390360       0.00000000
Si      -1.70683362       0.24653286      -3.17809823       0.00000000
Si       2.43638846       2.51690274       1.14644470       0.00000000
Si       2.13797195      -0.76926267       2.91083466       0.00000000
Si      -3.36745251      -0.33021459      -1.65762310       0.00000000
