10
Lattice="16.28999089631971 0.0 0.0 0.0 16.28999089631971 0.0 0.0 0.0 34.642051614445585" Properties=species:S:1:pos:R:3:initial_magmoms:R:1 pbc="T T T"
Si      -1.16727624      -1.59172848       1.38652953       0.00000000
Si       1.65925053       1.13906196       1.33288628       0.00000000
Si      -1.69347582       1.88967258      -0.02823329       0.00000000
Si       0.71570115      -1.23127965      -2.14496775       0.00000000
Si      -2.38420440      -0.22480200       2.83743993       0.00000000
Si       0.34845939       2.46850515       2.83251036       0.00000000
Si       2.49344514       2.96145684       0.00176675       0.00000000
Si      -3.14675559      -2.39119281       0.10257517       0.00000000
Si      -1.71405009       2.79345807      -2.27023348       0.00000000
Si      -0.48943305      -3.28872294      -2.25516418       0.00000000
