10
Lattice="16.28999089631971 0.0 0.0 0.0 16.28999089631971 0.0 0.0 0.0 34.642051614445585" Properties=species:S:1:pos:R:3:initial_magmoms:R:1 pbc="T T T"
Si      -0.95866650       1.95530892      -0.86605177       0.00000000
Si       1.52358319       0.40275396       1.75531374       0.00000000
Si      -1.99021446      -1.18770390       0.44009287       0.00000000
Si       1.54997788      -1.07789301      -1.41537109       0.00000000
Si      -0.86195277      -2.15430363       2.27179237       0.00000000
Si      -0.98701110       1.35641943      -3.13008432       0.00000000
Si       0.47040633      -0.55324098      -3.51745196       0.00000000
Si       1.25989533       2.72998150       2.03355885       0.00000000
Si       0.61489863      -0.75419442       3.56065062       0.00000000
Si       0.25958115       3.68503325       0.10669758       0.00000000
