10
Lattice="16.28999089631971 0.0 0.0 0.0 16.28999089631971 0.0 0.0 0.0 34.642051614445585" Properties=species:S:1:pos:R:3:initial_magmoms:R:1 pbc="T T T"
Si      -1.52177922      -0.69388884       1.60500179       0.00000000
Si      -1.12826169       0.96659973      -1.83169950       0.00000000
Si       1.47685140       1.40010921       1.28885825       0.00000000
Si       1.02532518      -1.71199755      -1.43556742       0.00000000
Si       0.86195277       2.15430363      -2.27179237       0.00000000
Si       2.38553596       2.55705759      -0.51647864       0.00000000
Si       2.15995204      -3.03630939       0.08012711       0.00000000
Si      -3.01163004      -2.13545610       0.55430778       0.00000000
Si      -2.69433342       1.26284967       2.26614571       0.00000000
Si      -0.76805721      -2.67988419      -2.64963344       0.00000000
