10
Lattice="16.28999089631971 0.0 0.0 0.0 16.28999089631971 0.0 0.0 0.0 34.642051614445585" Properties=species:S:1:pos:R:3:initial_magmoms:R:1 pbc="T T T"
Si       1.53788677      -1.20370068       1.28930860       0.00000000
Si       1.37589901       1.34177472      -1.37369668       0.00000000
Si      -1.34720100      -1.37233476      -1.37445881       0.00000000
Si      -1.09599935       1.35700587       1.70099497       0.00000000
Si       0.83525020       2.23700796       2.93314415       0.00000000
Si      -2.69121618       2.68991883       0.02158201       0.00000000
Si      -2.68553097      -2.71407690       0.00367206       0.00000000
Si       2.45428072       0.34407738       2.92437971       0.00000000
Si      -2.70001278      -0.01339038      -2.73135409       0.00000000
Si       0.01484996       2.70119151      -2.73107695       0.00000000
