10
Lattice="16.28999089631971 0.0 0.0 0.0 16.28999089631971 0.0 0.0 0.0 34.642051614445585" Properties=species:S:1:pos:R:3:initial_magmoms:R:1 pbc="T T T"
Si      -1.27607226       1.78056216       0.90100562       0.00000000
Si       1.93725567       0.47486979      -1.29339636       0.00000000
Si       0.94643271      -0.47267064       2.13959823       0.00000000
Si      -1.12841319      -1.73700270      -1.19380041       0.00000000
Si       2.66748750      -1.92319740       1.47869680       0.00000000
Si      -2.74742972      -2.33398233       0.44192890       0.00000000
Si       1.54751742       2.83540482      -1.66129516       0.00000000
Si       0.34417512       3.16974078       1.84915911       0.00000000
Si       0.64216809      -3.36264696      -1.69954000       0.00000000
Si       3.79262151      -0.66891627      -0.18949213       0.00000000
