10
Lattice="16.28999089631971 0.0 0.0 0.0 16.28999089631971 0.0 0.0 0.0 34.642051614445585" Properties=species:S:1:pos:R:3:initial_magmoms:R:1 pbc="T T T"
Si       1.10609914       1.62644247       1.26124852       0.00000000
Si      -1.21797628      -1.46202750       1.36240337       0.00000000
Si       1.61349355      -1.64024010      -0.58240250       0.00000000
Si      -1.21300783       1.05417477      -1.81216137       0.00000000
Si      -0.76786729       2.77646760       2.03633022       0.00000000
Si      -1.56873256      -3.22259368      -0.15564682       0.00000000
Si       0.22024569      -3.20067712      -1.67144528       0.00000000
Si       3.24746200      -0.44134497      -1.84773878       0.00000000
Si       2.48085460       2.91548646      -0.11449204       0.00000000
Si       0.00193362      -1.88566524       3.34649334       0.00000000
