10
Lattice="16.28999089631971 0.0 0.0 0.0 16.28999089631971 0.0 0.0 0.0 34.642051614445585" Properties=species:S:1:pos:R:3:initial_magmoms:R:1 pbc="T T T"
Si      -1.00879409      -1.68226830       1.29298066       0.00000000
Si       1.12490595      -0.93333555      -1.85269260       0.00000000
Si      -1.29187682       1.75868469      -0.94940060       0.00000000
Si       0.30252159       1.10736162       2.99608879       0.00000000
Si      -1.70535842      -0.24482241       3.02193178       0.00000000
Si       2.24958384      -0.59525289       2.66158496       0.00000000
Si       1.07066025      -2.67445962       2.30265846       0.00000000
Si      -2.13797195       0.76926267      -2.91083466       0.00000000
Si      -0.26400551      -0.38076246      -3.68591635       0.00000000
Si       0.29841651       3.28616541      -1.76438996       0.00000000
