10
Lattice="16.28999089631971 0.0 0.0 0.0 16.28999089631971 0.0 0.0 0.0 34.642051614445585" Properties=species:S:1:pos:R:3:initial_magmoms:R:1 pbc="T T T"
Si       1.85738580       1.24668999      -0.88995480       0.00000000
Si       0.82608219       0.09298332       2.26088286       0.00000000
Si      -1.17892359      -2.07920673      -0.35892650       0.00000000
Si      -1.94706225       1.70261451       0.33450384       0.00000000
Si      -0.82345950       1.81719837       2.49272846       0.00000000
Si      -2.24958384       0.59525289      -2.66158496       0.00000000
Si       2.38040883      -0.14323797      -2.73578827       0.00000000
Si      -3.25837793      -1.08701541      -1.36860430       0.00000000
Si      -1.66451220      -2.61967635       2.10467902       0.00000000
Si       2.15778969      -2.42760096      -2.04173438       0.00000000
