10
Lattice="16.28999089631971 0.0 0.0 0.0 16.28999089631971 0.0 0.0 0.0 34.642051614445585" Properties=species:S:1:pos:R:3:initial_magmoms:R:1 pbc="T T T"
Si       1.36152159      -1.42501662      -1.27324507       0.00000000
Si      -1.35363601      -1.36016613       1.37315280       0.00000000
Si       1.36397812       1.35215145       1.37672094       0.00000000
Si      -1.38507571       1.36417347      -1.47354206       0.00000000
Si      -2.69586685       2.69361666       0.02608202       0.00000000
Si       2.69008675       2.71551042       0.01139724       0.00000000
Si      -2.73126502      -2.70962973       0.00338107       0.00000000
Si       2.71975084      -2.72425815       0.05135341       0.00000000
Si       0.00543425       2.70892926       2.73590259       0.00000000
Si      -2.71059301      -0.00474039       2.73569474       0.00000000
