10
Lattice="16.28999089631971 0.0 0.0 0.0 16.28999089631971 0.0 0.0 0.0 34.642051614445585" Properties=species:S:1:pos:R:3:initial_magmoms:R:1 pbc="T T T"
Si      -1.93725567      -0.47486979       1.29339636       0.00000000
Si      -0.02331099      -0.98591967      -2.17479457       0.00000000
Si      -0.38973825       2.36053503      -0.36789879       0.00000000
Si       1.85536584      -1.14378606       1.10390423       0.00000000
Si       2.05581429      -0.19425825      -2.99075391       0.00000000
Si      -0.99082296      -0.94754043       3.43299459       0.00000000
Si       0.73023183      -2.39806719       2.77209316       0.00000000
Si      -3.06566886      -2.21187249       0.09959595       0.00000000
Si      -2.19114021      -0.45449100      -3.05013042       0.00000000
Si       1.29081960       3.30019110      -1.74824675       0.00000000
