10
Lattice="16.28999089631971 0.0 0.0 0.0 16.28999089631971 0.0 0.0 0.0 34.642051614445585" Properties=species:S:1:pos:R:3:initial_magmoms:R:1 pbc="T T T"
Si      -1.28473758      -0.84199752      -1.85639930       0.00000000
Si       1.83353398      -1.27757583       0.96256458       0.00000000
Si      -1.49048028      -0.02920797       2.01388215       0.00000000
Si       1.21493752       1.69259616      -1.89578733       0.00000000
Si      -2.64141765      -2.33579052      -0.57540480       0.00000000
Si       0.12910965      -2.11199850      -3.31050023       0.00000000
Si       3.21593596      -2.33960238      -0.67960815       0.00000000
Si      -0.41090873      -0.55386000       4.11596302       0.00000000
Si      -2.29092201       3.43404670      -0.86362683       0.00000000
Si      -2.57508477       0.61010937      -3.31295982       0.00000000
