10
Lattice="10.86 0.0 0.0 0.0 10.86 0.0 0.0 0.0 10.86" Properties=species:S:1:pos:R:3:initial_magmoms:R:1 pbc="T T T"
Si      -1.28353254       1.28353254       1.37231304       0.00000000
Si       1.43146746       1.28353254      -1.34268696       0.00000000
Si      -1.28353254      -1.43146746      -1.34268696       0.00000000
Si       1.40890038      -1.40890038       1.24808550       0.00000000
Si      -2.64103254       2.64103254       0.01481304       0.00000000
Si       0.07396746       2.64103254      -2.70018696       0.00000000
Si      -2.64103254      -0.07396746      -2.70018696       0.00000000
Si       0.07396746       2.64103254       2.72981304       0.00000000
Si      -2.64103254      -0.07396746       2.72981304       0.00000000
Si       2.78896746       2.64103254       0.01481304       0.00000000
