10
Lattice="10.86 0.0 0.0 0.0 10.86 0.0 0.0 0.0 10.86" Properties=species:S:1:pos:R:3:initial_magmoms:R:1 pbc="T T T"
Si      -1.19307960       1.39100310      -1.40659806       0.00000000
Si       1.52192040       1.39100310       1.30840194       0.00000000
Si       1.52192040      -1.32399690      -1.40659806       0.00000000
Si      -1.66559820      -1.73984802       1.71871446       0.00000000
Si      -2.23816998       2.77800972      -0.05325744       0.00000000
Si      -2.49815838      -2.57866356      -0.23771454       0.00000000
Si      -2.55057960       0.03350310      -2.76409806       0.00000000
Si       0.24951936      -2.74622250       2.61019014       0.00000000
Si       0.16442040      -2.68149690      -2.76409806       0.00000000
Si       0.16442040       2.74850310      -2.76409806       0.00000000
