10
Lattice="16.28999089631971 0.0 0.0 0.0 16.28999089631971 0.0 0.0 0.0 34.56954931742767" Properties=species:S:1:pos:R:3:initial_magmoms:R:1 pbc="T T T"
Si       1.36919079      -1.24980120      -1.39923440       0.00000000
Si      -1.34078103      -1.35731520       1.34648470       0.00000000
Si      -1.33108848       1.34588065      -1.39062312       0.00000000
Si       1.37626065       1.35765181       1.33925966       0.00000000
Si       2.18124729       0.66765139      -2.61134373       0.00000000
Si       0.37230795       2.32436231      -2.71117639       0.00000000
Si      -2.69578323      -0.00075782       2.70015987       0.00000000
Si      -2.70130554      -2.69838945      -0.01914117       0.00000000
Si      -2.68996770       2.71939481      -0.02810506       0.00000000
Si       0.01666467      -2.71360431       2.70022901       0.00000000
