10
Lattice="16.28999089631971 0.0 0.0 0.0 16.28999089631971 0.0 0.0 0.0 34.56954931742767" Properties=species:S:1:pos:R:3:initial_magmoms:R:1 pbc="T T T"
Si      -1.35747828      -1.35523026      -1.38001718       0.00000000
Si       1.35819504       1.35731538      -1.38219506       0.00000000
Si       1.12192488      -1.50208461       1.47370071       0.00000000
Si      -1.35863487       1.35909099       1.50930737       0.00000000
Si       2.29851900       0.11243358       2.75211793       0.00000000
Si      -0.82704330      -2.10720924       2.83394410       0.00000000
Si      -2.71184517       2.69845479      -0.01199564       0.00000000
Si       2.70589932       2.70723510      -0.00058768       0.00000000
Si       2.70067023      -2.72091870      -0.00750160       0.00000000
Si       0.00128691       2.71192662      -2.74095196       0.00000000
