10
Lattice="16.28999089631971 0.0 0.0 0.0 16.28999089631971 0.0 0.0 0.0 34.56954931742767" Properties=species:S:1:pos:R:3:initial_magmoms:R:1 pbc="T T T"
Si      -1.57239225      -1.13982759      -1.37932579       0.00000000
Si       1.23123078       1.65441240      -1.34320059       0.00000000
Si       1.76282235      -1.81188783      -0.01856386       0.00000000
Si      -1.28143656       0.40125528       2.28688067       0.00000000
Si      -2.57646713       2.73061125      -0.17084281       0.00000000
Si      -0.14623533      -2.42554842      -2.86792598       0.00000000
Si       2.11393701       0.23509728       3.12553841       0.00000000
Si       2.58986565       0.29532141      -2.85250796       0.00000000
Si      -3.33619689      -1.95234021       0.15829405       0.00000000
Si       0.30700134       1.66594572       3.56885856       0.00000000
