10
Lattice="16.28999089631971 0.0 0.0 0.0 16.28999089631971 0.0 0.0 0.0 34.56954931742767" Properties=species:S:1:pos:R:3:initial_magmoms:R:1 pbc="T T T"
Si       1.17659412       1.61451819       1.27841722       0.00000000
Si      -1.12192488       1.50208461      -1.47370071       0.00000000
Si      -1.94896818      -0.60512463       1.36024339       0.00000000
Si       1.57874535      -1.21883409      -1.48120231       0.00000000
Si       2.12459067      -0.11631060       2.50757280       0.00000000
Si      -2.54353689      -2.51709822      -0.04711832       0.00000000
Si       0.63767205      -2.11481667       2.94142089       0.00000000
Si      -2.47940316       0.14685435      -2.85371789       0.00000000
Si      -2.48055975       2.86117560       0.03560666       0.00000000
Si       0.23750820      -2.57163714      -2.85468584       0.00000000
