10
Lattice="16.28999089631971 0.0 0.0 0.0 16.28999089631971 0.0 0.0 0.0 34.56954931742767" Properties=species:S:1:pos:R:3:initial_magmoms:R:1 pbc="T T T"
Si       1.29494097      -1.73477097       0.92318033       0.00000000
Si      -2.32577217      -0.39900726       0.02990268       0.00000000
Si       0.21709683      -0.73441836      -2.24581203       0.00000000
Si       0.60629751       2.18004183       0.80927360       0.00000000
Si       0.32599548      -3.64897629      -0.02509751       0.00000000
Si      -3.12463377       0.77581125      -1.79568167       0.00000000
Si       0.94266972      -1.60994070       3.25991032       0.00000000
Si       2.96896653       2.49833214       0.52065227       0.00000000
Si       0.18124254      -3.13515711      -2.36466220       0.00000000
Si       3.61952397      -1.50410457       0.33380375       0.00000000
