10
Lattice="16.28999089631971 0.0 0.0 0.0 16.28999089631971 0.0 0.0 0.0 34.56954931742767" Properties=species:S:1:pos:R:3:initial_magmoms:R:1 pbc="T T T"
Si      -0.03875391       1.18325673       2.01163777       0.00000000
Si       2.32565814      -0.31219785      -0.24056963       0.00000000
Si      -0.54659466       1.38510612      -1.84736318       0.00000000
Si      -0.99129537      -2.20126770      -0.27558860       0.00000000
Si      -1.97288190      -0.26057484      -2.65089823       0.00000000
Si       2.07583470       2.21544000       1.69964741       0.00000000
Si      -0.83062710      -2.34518985      -2.62645755       0.00000000
Si       2.70915732      -2.08876896       1.31150029       0.00000000
Si       2.64587067      -0.31182318      -2.54096700       0.00000000
Si       1.28741499       1.56330243      -3.30381367       0.00000000
