10
Lattice="16.28999089631971 0.0 0.0 0.0 16.28999089631971 0.0 0.0 0.0 34.56954931742767" Properties=species:S:1:pos:R:3:initial_magmoms:R:1 pbc="T T T"
Si      -1.29464775      -1.46769642       1.43069617       0.00000000
Si      -0.55705284       0.03223791      -2.36255346       0.00000000
Si       2.24635842      -0.92212803       0.04162176       0.00000000
Si       0.34878519       2.25038205       1.19233899       0.00000000
Si       2.52713286      -1.27057113      -2.22213187       0.00000000
Si       1.56994875       0.59383566      -3.26537231       0.00000000
Si       2.82133026       2.42357733       0.89832481       0.00000000
Si      -3.04334667      -2.31557463      -0.21968961       0.00000000
Si      -2.29785111       1.59260814      -2.62092642       0.00000000
Si      -2.29838868      -0.14638194       3.19298364       0.00000000
