10
Lattice="16.28999089631971 0.0 0.0 0.0 16.28999089631971 0.0 0.0 0.0 34.56954931742767" Properties=species:S:1:pos:R:3:initial_magmoms:R:1 pbc="T T T"
Si      -1.34524449       1.27532781       1.41916376       0.00000000
Si       1.35943308       1.29267666      -1.41193669       0.00000000
Si      -1.81239282      -0.90218907      -1.24748229       0.00000000
Si       1.36461330      -1.45916046       1.39371019       0.00000000
Si       2.68086159      -0.30149532      -2.49520869       0.00000000
Si      -2.68035660       2.62516608      -0.02015752       0.00000000
Si      -2.62589913      -2.74049928      -0.02381843       0.00000000
Si       0.01528002       2.61640206       2.78478963       0.00000000
Si       2.72525184       2.72391606       0.03907053       0.00000000
Si      -2.69899236      -0.09847305       2.77576697       0.00000000
