10
Lattice="16.28999089631971 0.0 0.0 0.0 16.28999089631971 0.0 0.0 0.0 34.56954931742767" Properties=species:S:1:pos:R:3:initial_magmoms:R:1 pbc="T T T"
Si      -1.01704986      -1.43547480       1.60281805       0.00000000
Si      -0.28413018       1.85844695       1.47314760       0.00000000
Si       2.47580307      -0.28585692       0.00428663       0.00000000
Si      -1.92806811       0.17676279      -1.60306004       0.00000000
Si      -0.57935385       0.26054226       3.26029059       0.00000000
Si       0.84885561      -2.09774475      -2.78150206       0.00000000
Si       2.78552484      -0.95529447      -2.20979054       0.00000000
Si      -2.22718509       2.96502828       0.53434182       0.00000000
Si      -3.15828891      -1.97276787       0.65129067       0.00000000
Si      -0.97578729      -0.76634676      -3.58216784       0.00000000
