10
Lattice="16.28999089631971 0.0 0.0 0.0 16.28999089631971 0.0 0.0 0.0 34.56954931742767" Properties=species:S:1:pos:R:3:initial_magmoms:R:1 pbc="T T T"
Si       0.30972177      -0.66943755      -2.21407716       0.00000000
Si       0.90316647      -1.90192266       1.14964557       0.00000000
Si       1.76692743       1.69985321       0.05074813       0.00000000
Si      -2.47580307       0.28585692      -0.00428663       0.00000000
Si       1.20493872       2.15820250       2.25009865       0.00000000
Si      -1.62694746      -1.81188783      -2.78578869       0.00000000
Si       3.26583549      -1.58363235       0.86102425       0.00000000
Si      -2.75993325       2.14430387       1.46886097       0.00000000
Si       3.90727053       0.58573953       0.06461052       0.00000000
Si       0.25534575       1.05645537      -3.80099321       0.00000000
