10
Lattice="16.28999089631971 0.0 0.0 0.0 16.28999089631971 0.0 0.0 0.0 34.56954931742767" Properties=species:S:1:pos:R:3:initial_magmoms:R:1 pbc="T T T"
Si       0.05437602      -1.72589292       1.58691605       0.00000000
Si       1.31706279       1.95053921       0.43861869       0.00000000
Si      -0.96730020      -0.71314362      -2.29936029       0.00000000
Si      -2.58170436       0.25394481      -0.89576666       0.00000000
Si       1.91894571      -2.99485134      -0.00532371       0.00000000
Si      -1.88229321      -2.86834320       1.01520452       0.00000000
Si       1.28844126       2.29776056      -2.61107409       0.00000000
Si       3.37901841       1.63847656      -0.90990562       0.00000000
Si       0.49441779       3.77016479      -0.90053726       0.00000000
Si      -0.25534575      -1.05645537       3.80099321       0.00000000
