10
Lattice="16.28999089631971 0.0 0.0 0.0 16.28999089631971 0.0 0.0 0.0 34.56954931742767" Properties=species:S:1:pos:R:3:initial_magmoms:R:1 pbc="T T T"
Si       1.99609515       1.40030469      -0.02596175       0.00000000
Si       0.23115510      -2.15726760       1.11977747       0.00000000
Si       0.03663621      -0.85012623      -2.29334518       0.00000000
Si      -1.54522053       1.11071736       1.57218941       0.00000000
Si       2.05522785       1.69938909       2.25566435       0.00000000
Si      -0.04121370       2.77705404       2.46557077       0.00000000
Si      -0.33083361      -1.69891831       3.31912799       0.00000000
Si      -0.78600879       0.96949935      -3.63250113       0.00000000
Si       1.39676976      -0.14392215       3.63806683       0.00000000
Si      -2.34258345      -0.47677572       3.14088730       0.00000000
