10
Lattice="16.28999089631971 0.0 0.0 0.0 16.28999089631971 0.0 0.0 0.0 34.56954931742767" Properties=species:S:1:pos:R:3:initial_magmoms:R:1 pbc="T T T"
Si       1.37707515      -0.77716332      -1.77784378       0.00000000
Si       1.21513626       1.63072674       1.27831351       0.00000000
Si      -2.06692407       1.14344397      -0.49977225       0.00000000
Si      -0.68233923      -2.29721091       0.59421632       0.00000000
Si       1.13878503       1.24748820      -2.94881877       0.00000000
Si      -1.01204883       2.09360709      -2.48690020       0.00000000
Si       2.52032364      -0.03126051       2.47780840       0.00000000
Si      -0.94555305      -2.11377574       2.88571691       0.00000000
Si      -3.66564096      -0.41107815       0.58557392       0.00000000
Si       0.32166234      -2.86510868      -2.41077801       0.00000000
