10
Lattice="16.28999089631971 0.0 0.0 0.0 16.28999089631971 0.0 0.0 0.0 34.56954931742767" Properties=species:S:1:pos:R:3:initial_magmoms:R:1 pbc="T T T"
Si      -0.94799655       1.73082879      -1.22915558       0.00000000
Si       0.09611100       1.71815517       1.60755408       0.00000000
Si       1.84603167      -0.71700435      -1.34112642       0.00000000
Si      -1.48691862      -1.99850607       0.43384809       0.00000000
Si       2.93024520       1.30943907       0.16766241       0.00000000
Si      -2.12459067       0.11631060      -2.50757280       0.00000000
Si       1.70738748       0.58556034       2.92911412       0.00000000
Si       0.83364075      -2.40354063      -2.61390879       0.00000000
Si       2.94904386      -2.20845159       0.02267764       0.00000000
Si      -0.69289515      -3.47091030      -1.27668874       0.00000000
