10
Lattice="16.28999089631971 0.0 0.0 0.0 16.28999089631971 0.0 0.0 0.0 34.56954931742767" Properties=species:S:1:pos:R:3:initial_magmoms:R:1 pbc="T T T"
Si       1.39461948      -0.12052971      -1.89112825       0.00000000
Si      -0.64143504      -2.16937188       0.79641372       0.00000000
Si      -2.14034310       1.11411368      -0.01386240       0.00000000
Si       1.92544542       0.71522874       1.27544423       0.00000000
Si       0.61447509      -2.09466594       2.80860460       0.00000000
Si       0.78706764       1.69201365       3.05142125       0.00000000
Si       2.66349645      -1.47781251       1.92604352       0.00000000
Si      -2.70233181       1.57246297       2.18548813       0.00000000
Si       1.56030507       1.92499974      -3.03973674       0.00000000
Si      -3.90727053      -0.58573953      -0.06461052       0.00000000
