10
Lattice="16.28999089631971 0.0 0.0 0.0 16.28999089631971 0.0 0.0 0.0 34.56954931742767" Properties=species:S:1:pos:R:3:initial_magmoms:R:1 pbc="T T T"
Si      -1.83400965      -0.17819631       1.45645050       0.00000000
Si      -0.12606831      -0.03196098      -2.37655414       0.00000000
Si       0.54861462       2.30728302       0.34417463       0.00000000
Si       1.35845568      -1.87512561       0.76284667       0.00000000
Si       2.23660071       0.28632933      -2.66517546       0.00000000
Si       3.49251084       0.36103527      -0.65298458       0.00000000
Si       2.83633335       2.22798330       0.62128429       0.00000000
Si       1.03824315      -1.87550028       3.06324405       0.00000000
Si      -2.63526588       2.07062190       1.70711444       0.00000000
Si      -3.26029689      -1.82387727       0.65291544       0.00000000
