10
Lattice="16.28999089631971 0.0 0.0 0.0 16.28999089631971 0.0 0.0 0.0 34.56954931742767" Properties=species:S:1:pos:R:3:initial_magmoms:R:1 pbc="T T T"
Si       1.26557499       1.44642168      -1.37764713       0.00000000
Si      -1.28369110      -1.34022717      -1.50109506       0.00000000
Si       1.29189963      -1.37671677       1.51938785       0.00000000
Si      -1.41947905       1.32851466       1.49279348       0.00000000
Si       2.60984208      -2.75967261       0.13667425       0.00000000
Si      -2.71756526      -2.66494626       0.02074520       0.00000000
Si       2.26931592       0.12510720      -3.13993460       0.00000000
Si       2.73149580       2.76029163       0.08797610       0.00000000
Si      -1.47735869      -0.01029528      -3.62055531       0.00000000
Si       2.65910304      -0.02725317       2.88607501       0.00000000
