10
Lattice="16.28999089631971 0.0 0.0 0.0 16.28999089631971 0.0 0.0 0.0 34.56954931742767" Properties=species:S:1:pos:R:3:initial_magmoms:R:1 pbc="T T T"
Si      -1.12436838      -2.02637826       0.29798968       0.00000000
Si      -1.46487825       1.65782908       0.78908497       0.00000000
Si       2.39660109      -0.56578428       0.17865553       0.00000000
Si      -0.46087668       1.08993132      -2.21590935       0.00000000
Si      -2.42175285      -1.69754832      -1.71893723       0.00000000
Si       0.73989180      -3.29932773       0.91032045       0.00000000
Si       0.59453613       3.17787668      -1.58297512       0.00000000
Si      -2.77074981       0.54955944      -2.39197216       0.00000000
Si       0.31731291      -0.38224485      -3.89516072       0.00000000
Si       2.55818160      -2.95306749      -0.61042944       0.00000000
