10
Lattice="16.28999089631971 0.0 0.0 0.0 16.28999089631971 0.0 0.0 0.0 34.56954931742767" Properties=species:S:1:pos:R:3:initial_magmoms:R:1 pbc="T T T"
Si      -1.35633798      -1.35709650      -1.35657901       0.00000000
Si       1.35897263       1.35794092      -1.35671729       0.00000000
Si       1.35722769      -1.35664780       1.36269783       0.00000000
Si      -1.35871632       1.35986314       1.36062365       0.00000000
Si      -2.71331127       2.71427890       0.00006914       0.00000000
Si      -2.71347417      -2.71484320       0.00124450       0.00000000
Si      -2.71404432       0.00106374      -2.71433339       0.00000000
Si       0.00201996      -2.71474546      -2.71426425       0.00000000
Si       0.00149868       2.71548436      -2.71409140       0.00000000
Si       2.71518040       2.71468615       0.00065682       0.00000000
