10
Lattice="16.28999089631971 0.0 0.0 0.0 16.28999089631971 0.0 0.0 0.0 34.56954931742767" Properties=species:S:1:pos:R:3:initial_magmoms:R:1 pbc="T T T"
Si      -1.68164928       1.53932518      -0.59995486       0.00000000
Si       1.50704233       1.67260996       0.70317960       0.00000000
Si      -0.92967030      -1.68181774       1.42647868       0.00000000
Si       1.44214134      -1.12437394      -1.61298150       0.00000000
Si      -0.54965718       2.56256524      -2.39864409       0.00000000
Si      -3.14449128       0.19580417      -1.75215859       0.00000000
Si      -0.15164361      -0.91680676       3.52989865       0.00000000
Si       0.58055931      -3.30182566      -1.45206016       0.00000000
Si       3.42395342      -1.32643510      -0.41469655       0.00000000
Si       1.37192655       3.26117818      -1.12409866       0.00000000
