10
Lattice="16.28999089631971 0.0 0.0 0.0 16.28999089631971 0.0 0.0 0.0 34.56954931742767" Properties=species:S:1:pos:R:3:initial_magmoms:R:1 pbc="T T T"
Si       1.35766887      -1.35708732       1.35730497       0.00000000
Si      -1.35820711      -1.35725022      -1.35695928       0.00000000
Si       1.35721275       1.35801585      -1.35730497       0.00000000
Si      -1.35775236       1.35785295       1.35733954       0.00000000
Si       2.71257333      -0.00027693       2.71333087       0.00000000
Si      -0.00035512       2.71314837       2.71409140       0.00000000
Si      -2.71405639      -0.00017919       2.71443710       0.00000000
Si      -2.71474057      -2.71453302       0.00003457       0.00000000
Si       2.71517973      -2.71461447      -0.00024199       0.00000000
Si      -0.00105885      -2.71533123       2.71478279       0.00000000
