10
Lattice="16.28999089631971 0.0 0.0 0.0 16.28999089631971 0.0 0.0 0.0 34.56954931742767" Properties=species:S:1:pos:R:3:initial_magmoms:R:1 pbc="T T T"
Si       1.34539110       1.35195597       1.37532609       0.00000000
Si      -1.37363796      -1.36239786       1.37712371       0.00000000
Si      -1.30412853       1.48576203      -1.36847786       0.00000000
Si       1.39779603      -1.28466198      -1.49453233       0.00000000
Si       2.69588224       2.70879894      -0.02248405       0.00000000
Si      -2.71000440      -2.71195920       0.00560373       0.00000000
Si       2.70575011      -2.72389977      -0.01137685       0.00000000
Si       2.70161505      -0.00477297       2.73491265       0.00000000
Si      -0.01360215       2.71029762       2.73467067       0.00000000
Si      -0.01231524      -2.71868697       2.73484352       0.00000000
