10
Lattice="16.28999089631971 0.0 0.0 0.0 16.28999089631971 0.0 0.0 0.0 34.56954931742767" Properties=species:S:1:pos:R:3:initial_magmoms:R:1 pbc="T T T"
Si       1.35826020       1.35674523       1.35723583       0.00000000
Si       1.35757602      -1.35760860      -1.35716670       0.00000000
Si      -1.35801585       1.35757602      -1.35720126       0.00000000
Si      -1.35723393      -1.35881406       1.35699385       0.00000000
Si       2.71410948      -0.00032580      -2.71416054       0.00000000
Si       0.00017919      -2.71423980      -2.71422968       0.00000000
Si      -0.00110772       2.71474479      -2.71440253       0.00000000
Si      -2.71507059      -0.00047241      -2.71409140       0.00000000
Si       2.71290536       0.00099369       2.71626929       0.00000000
Si       2.71456423       2.71477737       0.00013828       0.00000000
