10
Lattice="16.28999089631971 0.0 0.0 0.0 16.28999089631971 0.0 0.0 0.0 34.56954931742767" Properties=species:S:1:pos:R:3:initial_magmoms:R:1 pbc="T T T"
Si       1.35645201       1.34965908      -1.37289585       0.00000000
Si      -1.36057338      -1.36632375      -1.36981916       0.00000000
Si       1.37049399      -1.26757377       1.45333924       0.00000000
Si      -1.46849463       1.26829053       1.46381381       0.00000000
Si      -0.33892974      -2.34323505       2.64920432       0.00000000
Si       2.70223407       2.70133812      -0.00203960       0.00000000
Si      -2.72557764       2.69939961       0.00846954       0.00000000
Si       2.71192662      -2.72098386       0.00342239       0.00000000
Si       0.00100998       2.70602964      -2.73103049       0.00000000
Si       2.71536381      -0.01052334      -2.73182559       0.00000000
