10
Lattice="16.28999089631971 0.0 0.0 0.0 16.28999089631971 0.0 0.0 0.0 34.56954931742767" Properties=species:S:1:pos:R:3:initial_magmoms:R:1 pbc="T T T"
Si       2.05107390      -0.56125566      -0.94724075       0.00000000
Si      -1.57918518      -1.74935052      -0.27379098       0.00000000
Si       0.02335986       0.29297565       2.38709785       0.00000000
Si      -0.51494319       2.02839822      -1.21214735       0.00000000
Si      -1.49035581      -2.21454405      -2.52575639       0.00000000
Si      -0.35179884       2.65383648       2.56533855       0.00000000
Si      -1.40294367       3.40330680       0.51038511       0.00000000
Si       1.79530461      -0.21880728      -3.25216674       0.00000000
Si      -0.54402084      -0.38408562      -3.69120026       0.00000000
Si       2.64411528      -2.67744069      -0.11846991       0.00000000
