10
Lattice="16.28999089631971 0.0 0.0 0.0 16.28999089631971 0.0 0.0 0.0 34.56954931742767" Properties=species:S:1:pos:R:3:initial_magmoms:R:1 pbc="T T T"
Si      -0.88800048       1.37490858       1.72253247       0.00000000
Si      -1.07103492      -0.35847774      -2.09059466       0.00000000
Si       1.87921440       1.18250739      -0.90496217       0.00000000
Si       0.51494319      -2.02839822       1.21214735       0.00000000
Si      -0.02907765      -2.41248384      -2.47905291       0.00000000
Si       0.80062092       3.31714899      -0.90700177       0.00000000
Si       2.56601709      -2.58965388       0.26490660       0.00000000
Si       3.43551932       1.03778703       0.80903161       0.00000000
Si      -0.14592582       3.54401982       1.24844540       0.00000000
Si      -3.20891823       1.30795668       1.58522214       0.00000000
