10
Lattice="16.28999089631971 0.0 0.0 0.0 16.28999089631971 0.0 0.0 0.0 34.56954931742767" Properties=species:S:1:pos:R:3:initial_magmoms:R:1 pbc="T T T"
Si      -1.21513626      -1.63072674      -1.27831351       0.00000000
Si       1.30518738      -1.66198725       1.19949489       0.00000000
Si      -1.60423920       1.18125306       1.43349630       0.00000000
Si       1.52619381       1.65908763      -1.56624345       0.00000000
Si       2.51703306      -0.26161740       2.68939287       0.00000000
Si      -3.28206033      -0.48728277      -1.77808576       0.00000000
Si      -0.18489150       2.50880661       2.81544734       0.00000000
Si       0.16193889      -2.40789006      -3.05615728       0.00000000
Si      -0.16021215      -2.92602609       2.70285426       0.00000000
Si      -2.90048337      -0.32938380       2.76053704       0.00000000
