10
Lattice="16.28999089631971 0.0 0.0 0.0 16.28999089631971 0.0 0.0 0.0 34.56954931742767" Properties=species:S:1:pos:R:3:initial_magmoms:R:1 pbc="T T T"
Si      -1.34342001       1.31041647      -1.32871248       0.00000000
Si       1.35053874       1.36596537       1.33933571       0.00000000
Si      -1.36735002      -1.34574948       1.34538539       0.00000000
Si       1.21083570      -1.31624829      -1.54059283       0.00000000
Si       0.47895858       2.17005606      -2.74721739       0.00000000
Si      -2.54096307      -0.26738406      -2.67123205       0.00000000
Si      -0.65409237      -2.07948366      -3.02754202       0.00000000
Si       2.31842538       0.49907673      -2.95453109       0.00000000
Si      -0.00868257      -2.70554094       2.70065075       0.00000000
Si       2.70787961       0.00959481       2.70044334       0.00000000
