10
Lattice="16.28999089631971 0.0 0.0 0.0 16.28999089631971 0.0 0.0 0.0 34.56954931742767" Properties=species:S:1:pos:R:3:initial_magmoms:R:1 pbc="T T T"
Si      -1.35588186      -1.35668007       1.35803093       0.00000000
Si      -1.35726651       1.35692442      -1.35737411       0.00000000
Si       1.35725022      -1.35723393      -1.35761610       0.00000000
Si       1.35799956       1.35870003       1.35692471       0.00000000
Si      -2.71282257      -0.00070047      -2.71419511       0.00000000
Si      -0.00043983      -2.71305063       2.71616558       0.00000000
Si      -2.71492398      -2.71467963       0.00020742       0.00000000
Si      -0.00089595      -2.71523349      -2.71440253       0.00000000
Si      -2.71487511       2.71479366       0.00020742       0.00000000
Si       2.71514613       2.71461447       0.00006914       0.00000000
