10
Lattice="16.28999089631971 0.0 0.0 0.0 16.28999089631971 0.0 0.0 0.0 34.56954931742767" Properties=species:S:1:pos:R:3:initial_magmoms:R:1 pbc="T T T"
Si       1.55630492      -0.14472036       1.71399378       0.00000000
Si      -1.07859348       2.13464160      -0.00203960       0.00000000
Si      -1.87921440      -1.18250739       0.90496217       0.00000000
Si       0.92945853      -1.20150153      -1.88473288       0.00000000
Si      -2.95024932      -1.54098513      -1.18563250       0.00000000
Si       0.43103340      -3.42971289      -1.13505722       0.00000000
Si       2.39962844      -2.30878170       1.72661168       0.00000000
Si      -2.02514022       2.36151243       2.15340757       0.00000000
Si      -2.42976753       0.01383021      -2.92648683       0.00000000
Si      -2.76721488       0.19240119       2.62749463       0.00000000
