10
Lattice="16.28999089631971 0.0 0.0 0.0 16.28999089631971 0.0 0.0 0.0 34.56954931742767" Properties=species:S:1:pos:R:3:initial_magmoms:R:1 pbc="T T T"
Si      -0.84245757       1.22437269       1.76456906       0.00000000
Si      -0.91517613      -1.88638200       1.10760898       0.00000000
Si       2.40799106      -0.39925161       0.01756134       0.00000000
Si      -1.38406749      -0.80430246      -2.19395767       0.00000000
Si       1.11296049       1.93010436      -2.44016214       0.00000000
Si      -0.23430722       3.19336128      -1.01026107       0.00000000
Si       0.35323073      -2.75284710      -2.11102528       0.00000000
Si       0.66722374      -3.42937080       0.33643104       0.00000000
Si       2.44345439      -2.23865325       1.53319494       0.00000000
Si      -3.06952863       1.59549147       1.52306605       0.00000000
