10
Lattice="16.28999089631971 0.0 0.0 0.0 16.28999089631971 0.0 0.0 0.0 34.56954931742767" Properties=species:S:1:pos:R:3:initial_magmoms:R:1 pbc="T T T"
Si       0.37515870      -2.36086083      -0.17824070       0.00000000
Si      -1.05114483       0.74947032      -2.05495344       0.00000000
Si       2.29581486       0.47614041      -0.75454997       0.00000000
Si      -0.69081003       0.33945102       2.57840585       0.00000000
Si       2.60620452      -1.62691488       0.43609511       0.00000000
Si      -0.84374055       3.38494797       0.82514103       0.00000000
Si       0.35179884      -2.65383648      -2.56533855       0.00000000
Si      -0.16314435      -0.62543826      -3.77748590       0.00000000
Si       2.87115064       2.58347997       0.14622928       0.00000000
Si      -0.30907017       2.91858156      -2.52904050       0.00000000
