10
Lattice="16.28999089631971 0.0 0.0 0.0 16.28999089631971 0.0 0.0 0.0 34.56954931742767" Properties=species:S:1:pos:R:3:initial_magmoms:R:1 pbc="T T T"
Si      -1.86426018       1.27294947      -0.61233077       0.00000000
Si       1.81828980       0.34626024      -1.52074989       0.00000000
Si       1.28598147       1.20404277       2.03358944       0.00000000
Si      -1.73394018      -1.23339735       2.10957478       0.00000000
Si       1.65670929       2.73354345      -0.73166492       0.00000000
Si       0.53467038      -0.46636641      -3.35418154       0.00000000
Si      -3.32443062       0.19772802       0.84809523       0.00000000
Si      -0.73989180       3.29932773      -0.91032045       0.00000000
Si      -0.53639712       0.34440318       3.45209435       0.00000000
Si       0.15293052      -3.04549695       1.75326481       0.00000000
