10
Lattice="16.28999089631971 0.0 0.0 0.0 16.28999089631971 0.0 0.0 0.0 34.56954931742767" Properties=species:S:1:pos:R:3:initial_magmoms:R:1 pbc="T T T"
Si      -2.31053192      -0.39343608      -0.31776347       0.00000000
Si       0.79451217      -0.46540530      -2.22164790       0.00000000
Si       0.24650028       2.30617530       0.69204819       0.00000000
Si       1.34016201      -1.60741575       1.22780737       0.00000000
Si       2.51647920       2.62378143      -0.01310187       0.00000000
Si      -2.56411835      -0.11313405      -2.64723386       0.00000000
Si       3.54247227      -1.10895804       0.27914927       0.00000000
Si       3.14773299      -0.74313351      -2.05353609       0.00000000
Si       0.89880075      -1.29529935       3.56830544       0.00000000
Si      -0.98171848      -1.65612285      -3.41841179       0.00000000
