10
Lattice="16.28999089631971 0.0 0.0 0.0 16.28999089631971 0.0 0.0 0.0 34.56954931742767" Properties=species:S:1:pos:R:3:initial_magmoms:R:1 pbc="T T T"
Si       0.47884455       2.30868396       0.25636792       0.00000000
Si       1.40698359      -1.58698809       1.07117265       0.00000000
Si      -2.19923864      -0.29685267       0.88861076       0.00000000
Si       0.22849983      -0.25622541      -2.42591948       0.00000000
Si      -3.46024754       0.31723146      -1.00898200       0.00000000
Si      -1.21927555       3.59626185      -0.65972565       0.00000000
Si       3.63837150      -1.24199847       0.36674855       0.00000000
Si       0.88080030      -3.85770006       0.45033777       0.00000000
Si      -2.52709118       2.27051649      -2.08250538       0.00000000
Si       2.49847875       0.06138072      -3.13106954       0.00000000
