10
Lattice="16.28999089631971 0.0 0.0 0.0 16.28999089631971 0.0 0.0 0.0 34.56954931742767" Properties=species:S:1:pos:R:3:initial_magmoms:R:1 pbc="T T T"
Si       1.35577091       1.35688547       1.35761610       0.00000000
Si      -1.35845327      -1.35836986       1.35765067       0.00000000
Si       1.35588168      -1.36123690      -1.35761610       0.00000000
Si      -1.35895826       1.35816098      -1.36221385       0.00000000
Si       2.71359779      -2.71382818       0.00024199       0.00000000
Si       2.71319054       2.71485408       0.00017285       0.00000000
Si       2.71377698      -0.00048142       2.71502478       0.00000000
Si      -0.00150060       2.71431651       2.71519763       0.00000000
Si      -0.00161621      -2.71592959       2.71505935       0.00000000
Si      -2.71594784      -2.71531057      -0.00003457       0.00000000
