10
Lattice="16.28999089631971 0.0 0.0 0.0 16.28999089631971 0.0 0.0 0.0 34.56954931742767" Properties=species:S:1:pos:R:3:initial_magmoms:R:1 pbc="T T T"
Si       2.35628334      -0.16066827      -0.24060420       0.00000000
Si      -0.45004383       1.45857402       1.86170955       0.00000000
Si      -1.41383842      -1.93961772       0.40958025       0.00000000
Si      -1.02645245       0.39205143      -2.28632756       0.00000000
Si       2.02243608      -1.17934713      -2.39864409       0.00000000
Si      -1.43928992       3.22405164       0.70922927       0.00000000
Si       0.78017697       3.60810468      -0.39264116       0.00000000
Si      -2.96522702      -1.13612976       2.01018585       0.00000000
Si       3.15514494      -1.33548678       1.58498015       0.00000000
Si      -1.65741139       0.18961560       3.43296558       0.00000000
