10
Lattice="16.28999089631971 0.0 0.0 0.0 16.28999089631971 0.0 0.0 0.0 34.56954931742767" Properties=species:S:1:pos:R:3:initial_magmoms:R:1 pbc="T T T"
Si      -1.69812010       1.28757789      -0.91609357       0.00000000
Si       0.75390120       0.76502727       2.10355825       0.00000000
Si      -0.47884455      -2.30868396      -0.25636792       0.00000000
Si       1.97825760       0.83619828      -1.04292932       0.00000000
Si       2.91227733       0.54960831       1.04476150       0.00000000
Si      -0.49075254       2.55653631      -2.48734960       0.00000000
Si      -0.25034472      -2.56490937      -2.68228740       0.00000000
Si      -2.67808319      -2.60553663       0.63224284       0.00000000
Si      -3.00593573      -0.03816747      -2.33887331       0.00000000
Si       1.65048651       3.09382938      -1.53582223       0.00000000
