10
Lattice="16.28999089631971 0.0 0.0 0.0 16.28999089631971 0.0 0.0 0.0 34.56954931742767" Properties=species:S:1:pos:R:3:initial_magmoms:R:1 pbc="T T T"
Si       1.35620777       1.35674523       1.35737411       0.00000000
Si       1.35727151      -1.35743104      -1.35758153       0.00000000
Si      -1.35747395       1.35754344      -1.35737411       0.00000000
Si      -1.35897263      -1.35794092       1.35671729       0.00000000
Si      -0.00094049       2.71482624      -2.71436796       0.00000000
Si      -2.71487078       0.00091224      -2.71443710       0.00000000
Si       0.00150060      -2.71431651      -2.71519763       0.00000000
Si       2.71469115       0.00053757      -2.71502478       0.00000000
Si       2.71493550       2.71498914      -0.00010371       0.00000000
Si       2.71527759      -2.71479793      -0.00017285       0.00000000
