10
Lattice="16.28999089631971 0.0 0.0 0.0 16.28999089631971 0.0 0.0 0.0 34.56954931742767" Properties=species:S:1:pos:R:3:initial_magmoms:R:1 pbc="T T T"
Si      -0.75390120      -0.76502727      -2.10355825       0.00000000
Si      -0.37970361       2.28001356       0.59604850       0.00000000
Si      -0.72783720      -1.15733934       1.96095878       0.00000000
Si       2.15837613      -0.21541896      -1.05879675       0.00000000
Si       1.22435640       0.07117101      -3.14648757       0.00000000
Si      -2.15213054       2.00016765       2.08789824       0.00000000
Si       1.01296107      -2.71770957       2.21933174       0.00000000
Si       3.58466337       1.43026200      -0.25526169       0.00000000
Si      -1.28752902       0.44051418       3.64173121       0.00000000
Si      -2.45202130       0.52255062      -3.01965182       0.00000000
