10
Lattice="16.28999089631971 0.0 0.0 0.0 16.28999089631971 0.0 0.0 0.0 34.56954931742767" Properties=species:S:1:pos:R:3:initial_magmoms:R:1 pbc="T T T"
Si       1.74079827      -1.56037023       0.25837296       0.00000000
Si      -2.07730080      -1.15644339       0.16645247       0.00000000
Si      -0.55969182       1.59785352       1.68077243       0.00000000
Si       0.72783720       1.15733934      -1.96095878       0.00000000
Si      -1.42429334       3.15750699       0.12693946       0.00000000
Si      -1.23397727      -3.32050473       0.17907037       0.00000000
Si       0.34813359       3.43735290      -1.36491028       0.00000000
Si       0.86097537      -3.52487907      -0.84854463       0.00000000
Si       2.29785111      -1.59260814       2.62092642       0.00000000
Si      -3.05386091      -1.09265175       2.38035679       0.00000000
