10
Lattice="16.28999089631971 0.0 0.0 0.0 16.28999089631971 0.0 0.0 0.0 34.56954931742767" Properties=species:S:1:pos:R:3:initial_magmoms:R:1 pbc="T T T"
Si       1.35735936       1.35730201      -1.35792723       0.00000000
Si      -1.35803383      -1.35814617      -1.35789266       0.00000000
Si       1.35991689      -1.35870003       1.35944829       0.00000000
Si      -1.35966317       1.35751122       1.36166074       0.00000000
Si      -0.01416904      -2.70905958       2.71595816       0.00000000
Si      -2.71518040      -2.71406061      -0.00103709       0.00000000
Si       2.71446297       2.71503868      -0.00114080       0.00000000
Si       2.71446297      -0.00058644      -2.71512849       0.00000000
Si      -0.00064671       2.71466890      -2.71533591       0.00000000
Si       2.71428378      -2.71577106      -0.00013828       0.00000000
