10
Lattice="16.28999089631971 0.0 0.0 0.0 16.28999089631971 0.0 0.0 0.0 34.56954931742767" Properties=species:S:1:pos:R:3:initial_magmoms:R:1 pbc="T T T"
Si      -1.11549359      -1.61756442       1.33151608       0.00000000
Si       1.46595339       1.35907863       1.29117339       0.00000000
Si       1.41059997      -1.26617283      -1.49074351       0.00000000
Si      -1.29202832       1.43856405      -1.48144429       0.00000000
Si       2.87482662      -2.57092038      -0.09914552       0.00000000
Si      -2.72881025      -2.76547185      -0.03864878       0.00000000
Si       0.06059880      -2.62712088      -2.86681976       0.00000000
Si      -2.56420695       2.92530023      -0.04082666       0.00000000
Si      -2.65898126       0.08909037      -2.86460731       0.00000000
Si       2.70751203       2.85908138      -0.05952880       0.00000000
