10
Lattice="16.28999089631971 0.0 0.0 0.0 16.28999089631971 0.0 0.0 0.0 34.56954931742767" Properties=species:S:1:pos:R:3:initial_magmoms:R:1 pbc="T T T"
Si      -0.49565583       2.30608800      -0.24416486       0.00000000
Si       0.95228082      -0.94310955      -1.97910780       0.00000000
Si      -2.21946689      -0.38405304       1.10187043       0.00000000
Si       1.92806811      -0.17676279       1.60306004       0.00000000
Si      -1.23022080      -2.14953066       2.25435071       0.00000000
Si      -0.29911698       2.78826549       2.13740186       0.00000000
Si       0.91101825      -1.61223759       3.20587809       0.00000000
Si      -0.78017697      -3.60810468       0.39264116       0.00000000
Si       2.77692372      -2.27450754      -1.17844203       0.00000000
Si      -2.25636374       1.41954548       2.68633204       0.00000000
