10
Lattice="10.86 0.0 0.0 0.0 10.86 0.0 0.0 0.0 10.86" Properties=species:S:1:pos:R:3:initial_magmoms:R:1 pbc="T T T"
Si       1.39814898      -1.29110196      -1.13673792       0.00000000
Si      -1.31685102      -1.29110196       1.57826208       0.00000000
Si      -1.92846450      -0.02123130      -1.55881182       0.00000000
Si       1.39814898       1.42389804       1.57826208       0.00000000
Si       0.04064898      -2.64860196      -2.49423792       0.00000000
Si      -2.52219156       2.62898880       0.31507032       0.00000000
Si       2.76884388       2.47978326       0.42193272       0.00000000
Si      -2.67435102      -2.64860196       0.22076208       0.00000000
Si       3.05301750      -0.06802704      -2.24653218       0.00000000
Si       2.75564898      -2.64860196       0.22076208       0.00000000
