10
Lattice="16.290000149 0.0 0.0 0.0 16.290000149 0.0 0.0 0.0 29.1751946751" Properties=species:S:1:pos:R:3:initial_magmoms:R:1 pbc="T T T"
Si      -1.08054829      -1.16172136       1.70972476       0.00000000
Si       0.87685813      -1.77986171      -1.28397114       0.00000000
Si       1.87167215       1.46592082       0.16168893       0.00000000
Si      -1.59786982       1.29354004      -1.22372437       0.00000000
H        0.48027807       2.26924589       1.79485798       0.00000000
H       -1.23178465      -0.36921285       2.99098261       0.00000000
H        2.59398704       1.53738505       1.48606772       0.00000000
Si       1.99664903      -0.33743106      -2.83439934       0.00000000
Si      -3.28917909      -1.08468595       0.89564930       0.00000000
Si      -0.28409760       2.65973348      -2.60006417       0.00000000
