10
Lattice="16.290000149 0.0 0.0 0.0 16.290000149 0.0 0.0 0.0 29.1751946751" Properties=species:S:1:pos:R:3:initial_magmoms:R:1 pbc="T T T"
Si      -1.34122087       1.15510762       1.55351201       0.00000000
Si      -1.30645801      -1.44741538      -1.37100367       0.00000000
Si       1.42744384      -1.36834372       1.33168134       0.00000000
Si       0.83647522       1.99814771      -1.08942015       0.00000000
H        1.89420122       0.28053009      -1.89315212       0.00000000
Si      -0.91382014       3.53843238      -0.64241445       0.00000000
Si      -2.74818819       2.51654438       0.29683718       0.00000000
Si      -2.69982317      -0.01951542      -2.59536989       0.00000000
Si       0.08218305       2.61438212       2.77770902       0.00000000
Si      -2.63904518      -2.82791145       0.00162798       0.00000000
