10
Lattice="16.290000149 0.0 0.0 0.0 16.290000149 0.0 0.0 0.0 29.1751946751" Properties=species:S:1:pos:R:3:initial_magmoms:R:1 pbc="T T T"
Si      -2.30808125      -0.08285257       0.35360336       0.00000000
H       -0.90728785       1.56312325      -1.49980923       0.00000000
Si       0.97345783      -0.40397246      -2.15242916       0.00000000
Si       1.02089431       2.15218595       0.39048081       0.00000000
Si       0.05572809      -2.06777117       1.29103154       0.00000000
H       -2.92050381       1.22337901      -0.08507487       0.00000000
Si       2.84115522       1.26723169       1.53846637       0.00000000
Si       2.89106778      -1.46397743      -1.37237198       0.00000000
Si       3.53196525      -0.78134171       0.77182978       0.00000000
Si      -3.15573141      -1.74275309      -1.04394682       0.00000000
