10
Lattice="16.290000149 0.0 0.0 0.0 16.290000149 0.0 0.0 0.0 29.1751946751" Properties=species:S:1:pos:R:3:initial_magmoms:R:1 pbc="T T T"
Si       1.67497040      -1.68076964      -0.25344492       0.00000000
Si      -1.86383666      -0.83891872      -1.25182008       0.00000000
Si      -0.63689014       0.32819463       2.32998940       0.00000000
Si       0.69294403       1.86440681      -1.41709756       0.00000000
H        2.20744163       0.77502934       1.11390893       0.00000000
H       -1.06407910       2.49784346       0.12889601       0.00000000
H       -2.61061913      -0.29589156       1.25246193       0.00000000
H        0.59036590      -1.63294219       2.55122490       0.00000000
H       -0.49355442       2.38049030      -2.21188821       0.00000000
H       -3.26645454       0.11978037       1.20694863       0.00000000
