10
Lattice="16.290000149 0.0 0.0 0.0 16.290000149 0.0 0.0 0.0 29.1751946751" Properties=species:S:1:pos:R:3:initial_magmoms:R:1 pbc="T T T"
Si       1.41908056       1.43764138       1.16581160       0.00000000
Si       1.44067132      -1.24237315      -1.36493231       0.00000000
Si      -1.28922319       1.41879385      -1.35381656       0.00000000
Si      -1.63391959      -1.05609700       1.43760772       0.00000000
H        0.25561128      -2.69218316       1.69601242       0.00000000
H       -1.10144836       1.39970197       2.80496157       0.00000000
Si      -0.06449211       2.50641200       2.60000582       0.00000000
Si      -2.61594596       2.48907944       0.27395508       0.00000000
Si      -3.30888999       0.62467264       1.69105263       0.00000000
Si       0.08303209      -2.65385279      -2.67650318       0.00000000
