10
Lattice="16.290000149 0.0 0.0 0.0 16.290000149 0.0 0.0 0.0 29.1751946751" Properties=species:S:1:pos:R:3:initial_magmoms:R:1 pbc="T T T"
Si      -0.93313845       0.81010497       1.99622517       0.00000000
Si       1.35609527       1.39012671      -1.33564041       0.00000000
Si      -1.87331581      -0.89333058      -1.11773088       0.00000000
Si       1.83826299      -1.18019096       0.93013438       0.00000000
H        2.63790651       1.43656950      -0.51648847       0.00000000
H       -2.91164042       0.22737908      -1.09643299       0.00000000
Si       0.52482145      -2.60488180       2.27893281       0.00000000
Si       1.95638178      -0.12519191      -3.09610083       0.00000000
Si       0.39915713       2.78513716       2.48660184       0.00000000
Si      -0.64819686      -1.01443141       3.56660920       0.00000000
