10
Lattice="16.290000149 0.0 0.0 0.0 16.290000149 0.0 0.0 0.0 29.1751946751" Properties=species:S:1:pos:R:3:initial_magmoms:R:1 pbc="T T T"
Si      -1.43273809       1.31949001      -1.28359186       0.00000000
Si      -1.37940463      -1.31839858       1.36376530       0.00000000
Si       1.33696918       1.40450752       1.33663237       0.00000000
Si       1.34640109      -1.27962838      -1.46036437       0.00000000
Si      -0.07742637       2.65955429      -2.59948651       0.00000000
Si       2.68519475      -2.61628805      -0.03781105       0.00000000
Si      -0.02339244      -2.68868081       2.70258581       0.00000000
Si      -2.75180457      -2.64541457      -0.00110866       0.00000000
Si       2.69899238       0.06476904       2.70130210       0.00000000
Si      -2.74916559       0.06121782       2.68519739       0.00000000
