10
Lattice="16.290000149 0.0 0.0 0.0 16.290000149 0.0 0.0 0.0 29.1751946751" Properties=species:S:1:pos:R:3:initial_magmoms:R:1 pbc="T T T"
Si      -1.46965612      -1.38215764       1.21100398       0.00000000
Si       1.33832125      -1.33151203      -1.40828665       0.00000000
Si      -1.34703477       1.35146728      -1.38722216       0.00000000
Si       1.41406975       1.39461949       1.29902554       0.00000000
Si      -0.11334582       2.66276342       2.50822066       0.00000000
Si      -0.05530455      -2.60872949       2.58711039       0.00000000
Si       2.76086181       2.68376123      -0.07188768       0.00000000
Si      -2.81069292      -0.08078211       2.63559956       0.00000000
Si      -0.00969255       2.70081686      -2.75775610       0.00000000
Si       2.75784816      -2.70366761      -0.15465771       0.00000000
