10
Lattice="16.290000149 0.0 0.0 0.0 16.290000149 0.0 0.0 0.0 29.1751946751" Properties=species:S:1:pos:R:3:initial_magmoms:R:1 pbc="T T T"
Si      -1.24970365       1.09960433      -1.61152105       0.00000000
Si      -1.89806195      -0.02056613       1.33494021       0.00000000
Si       1.57398868       1.68596289       0.43856153       0.00000000
Si       0.43737021      -2.28739621       0.30543511       0.00000000
H        1.84080260       0.59360435      -2.37970393       0.00000000
H       -2.08104752       1.36395845       1.95021589       0.00000000
Si      -1.06595245      -1.26668109       3.04810472       0.00000000
Si       2.04424841      -2.45475967      -1.37680661       0.00000000
Si       0.84069433       2.31439851       2.61897554       0.00000000
Si      -2.58471803       2.64418957      -0.45125274       0.00000000
