10
Lattice="16.290000149 0.0 0.0 0.0 16.290000149 0.0 0.0 0.0 29.1751946751" Properties=species:S:1:pos:R:3:initial_magmoms:R:1 pbc="T T T"
Si       1.20550888      -1.42074865       1.45516798       0.00000000
Si      -1.46595340      -1.24341571      -1.39836708       0.00000000
Si      -1.48716298       1.29154810       1.34372194       0.00000000
Si       1.61456707       1.48779341      -0.93334365       0.00000000
Si       2.55704132      -2.77239513       0.11757603       0.00000000
H        1.22639266      -1.11164590      -3.39508823       0.00000000
Si      -2.76387546      -2.58613526       0.10540998       0.00000000
H        3.06884055      -0.65228419      -2.16444934       0.00000000
Si       0.88057225       3.67464936      -0.52847948       0.00000000
Si      -0.19238490       2.57666263       2.85142598       0.00000000
