10
Lattice="16.290000149 0.0 0.0 0.0 16.290000149 0.0 0.0 0.0 29.1751946751" Properties=species:S:1:pos:R:3:initial_magmoms:R:1 pbc="T T T"
H        1.28181124       0.04644279       0.81915194       0.00000000
Si      -1.35609527      -1.39012671       1.33564041       0.00000000
Si       0.60028651      -1.51531862      -1.76046042       0.00000000
Si      -0.79494223       2.25859223       0.21461273       0.00000000
Si       0.52074243       1.99262540      -1.69697520       0.00000000
Si       2.72937323       1.91558999      -0.88289974       0.00000000
Si       0.48216771      -2.57031767       2.26577479       0.00000000
H       -3.06067926       0.98841205      -1.50088871       0.00000000
Si       3.59031603      -0.16630461      -0.09592804       0.00000000
Si       2.66532095      -2.24558141      -0.91408802       0.00000000
