10
Lattice="16.290000149 0.0 0.0 0.0 16.290000149 0.0 0.0 0.0 29.1751946751" Properties=species:S:1:pos:R:3:initial_magmoms:R:1 pbc="T T T"
Si      -1.28699146      -1.43966802       1.28338764       0.00000000
Si       1.30210858      -1.41218679      -1.33934566       0.00000000
Si      -1.43423677       1.62752724      -0.92634161       0.00000000
Si       1.19057095       1.15108546       1.68973975       0.00000000
Si      -0.80066980       2.03979456       2.66626269       0.00000000
Si      -2.31345695       0.18991355       2.59504604       0.00000000
Si      -0.08531073       2.64609208      -2.55988993       0.00000000
Si       2.63026341       2.57151645       0.34441317       0.00000000
Si       0.24031008      -2.43290191       2.79040314       0.00000000
Si       1.76072096      -0.58211354       3.21329759       0.00000000
