10
Lattice="16.290000149 0.0 0.0 0.0 16.290000149 0.0 0.0 0.0 29.1751946751" Properties=species:S:1:pos:R:3:initial_magmoms:R:1 pbc="T T T"
Si      -1.35104374      -1.38276037       1.35670490       0.00000000
Si      -1.33025770       1.31525461      -1.44236327       0.00000000
Si       1.38774511      -1.34990344      -1.35364151       0.00000000
Si       1.40696731       1.36590022       1.31772684       0.00000000
Si      -2.68785002      -2.67283064      -0.07349232       0.00000000
Si       2.69619050      -0.05289363       2.67154340       0.00000000
H       -1.10625391       2.95226931       2.15070783       0.00000000
Si       0.08024454       2.43618581       2.94549848       0.00000000
Si       2.72911260       2.69019578      -0.12317767       0.00000000
Si       0.04500927      -2.67810860      -2.76058610       0.00000000
