10
Lattice="16.290000149 0.0 0.0 0.0 16.290000149 0.0 0.0 0.0 29.1751946751" Properties=species:S:1:pos:R:3:initial_magmoms:R:1 pbc="T T T"
Si      -1.37051029       1.34587981       1.33911226       0.00000000
Si      -1.38515500      -1.35034327      -1.32539992       0.00000000
Si       1.36278883      -1.36536265       1.33593216       0.00000000
Si       1.37108044       1.35812989      -1.33753680       0.00000000
Si       0.00705357       2.68165982       2.68408873       0.00000000
Si      -0.05489730      -2.77051526      -2.61115075       0.00000000
Si      -0.00156384      -2.71247725       2.68648110       0.00000000
Si       2.69897609      -0.00027693      -2.70375282       0.00000000
Si      -2.72047889      -0.01830996       2.69602139       0.00000000
Si      -2.71639010       2.70464501      -0.02990457       0.00000000
