10
Lattice="16.290000149 0.0 0.0 0.0 16.290000149 0.0 0.0 0.0 29.1751946751" Properties=species:S:1:pos:R:3:initial_magmoms:R:1 pbc="T T T"
Si      -1.41952690       1.37215558      -1.25362894       0.00000000
Si      -1.30375387      -1.23768163       1.49788367       0.00000000
Si       1.18444591      -1.45145530      -1.41143757       0.00000000
Si       1.85507264       0.93227671       1.10661513       0.00000000
Si       3.45825300      -0.84401749       1.02119016       0.00000000
Si      -0.04223997       2.69141753      -2.61710249       0.00000000
Si       2.58134600      -2.73284301      -0.05169844       0.00000000
Si       2.56863980      -0.11675043      -2.75247539       0.00000000
Si       0.14447601      -2.58903488       2.78121296       0.00000000
Si      -2.77537620      -0.01021383      -2.60455715       0.00000000
