10
Lattice="16.290000149 0.0 0.0 0.0 16.290000149 0.0 0.0 0.0 29.1751946751" Properties=species:S:1:pos:R:3:initial_magmoms:R:1 pbc="T T T"
Si      -1.33141869       1.40918275      -1.30944109       0.00000000
Si       1.33576258       1.37743354       1.34372194       0.00000000
Si       1.35002285      -1.33211476      -1.40131378       0.00000000
Si      -1.38499650      -1.33198444       1.36720797       0.00000000
Si      -2.71903348       0.06431292      -2.58763262       0.00000000
Si       2.64611065      -2.68302818       0.02684118       0.00000000
Si       2.67833227       0.01899414       2.70739972       0.00000000
Si       2.66684782       2.73484667      -0.04040764       0.00000000
Si      -0.05280029       2.73786033       2.66745887       0.00000000
Si      -2.75286781      -2.68097564       0.02867922       0.00000000
