10
Lattice="16.290000149 0.0 0.0 0.0 16.290000149 0.0 0.0 0.0 29.1751946751" Properties=species:S:1:pos:R:3:initial_magmoms:R:1 pbc="T T T"
Si      -1.34679205      -1.28914174       1.37091322       0.00000000
Si       1.25498161       1.31778282       1.47162599       0.00000000
Si       1.36374994      -1.37034739      -1.34389699       0.00000000
Si      -1.42625467       1.36285399      -1.29768348       0.00000000
Si       2.41572557       2.75835315      -0.03267622       0.00000000
Si       2.70725141       0.00786807      -2.65721838       0.00000000
Si      -0.04525362      -2.69601131      -2.69987252       0.00000000
Si      -0.11831427       2.71091666      -2.71939072       0.00000000
Si      -2.76086181      -2.68376123       0.07188768       0.00000000
Si      -2.77055436       0.01705563      -2.68586842       0.00000000
