10
Lattice="16.290000149 0.0 0.0 0.0 16.290000149 0.0 0.0 0.0 29.1751946751" Properties=species:S:1:pos:R:3:initial_magmoms:R:1 pbc="T T T"
Si      -0.84818773      -0.93498085      -0.80491445       0.00000000
H        1.43355259       0.91217485       0.55257819       0.00000000
H        0.80208703      -0.74174887       1.66228589       0.00000000
Si       2.07860402       1.73749142      -0.52629134       0.00000000
Si      -1.10011258       2.74747143      -0.05140669       0.00000000
Si      -0.81269182       1.86214250       2.19155310       0.00000000
Si      -2.14363370       0.35833113      -2.23204827       0.00000000
Si       0.57808324      -2.37876356      -1.93078521       0.00000000
Si      -2.67986792      -1.75798424       0.36118891       0.00000000
Si       1.98858548      -1.25783236       2.45707655       0.00000000
