10
Lattice="16.290000149 0.0 0.0 0.0 16.290000149 0.0 0.0 0.0 29.1751946751" Properties=species:S:1:pos:R:3:initial_magmoms:R:1 pbc="T T T"
Si       1.35539317       1.35439948      -1.33432753       0.00000000
Si       1.39447288      -1.45034758       1.19416989       0.00000000
Si      -1.37637469      -1.36612828      -1.33657402       0.00000000
Si      -1.30386790       1.34631964       1.43171433       0.00000000
Si      -0.01964574      -2.77667940       2.43411567       0.00000000
Si       2.66183489       2.66875326       0.11206192       0.00000000
Si      -0.01897785       2.70073867      -2.67107660       0.00000000
Si       2.70821252      -0.03031569      -2.67198103       0.00000000
Si      -2.70435179       2.68702086       0.07118748       0.00000000
Si      -2.64736937      -0.03189582       2.74503572       0.00000000
