10
Lattice="16.290000149 0.0 0.0 0.0 16.290000149 0.0 0.0 0.0 29.1751946751" Properties=species:S:1:pos:R:3:initial_magmoms:R:1 pbc="T T T"
H       -0.61242256       1.30623158      -0.43867823       0.00000000
Si      -0.84765016      -1.65990052      -1.39755018       0.00000000
Si       2.30808125       0.08285257      -0.35360336       0.00000000
Si      -0.75751759      -0.57772974       2.15301267       0.00000000
H        1.40079340       1.64597582      -1.85341259       0.00000000
Si       2.36380934      -1.98491860       0.93742818       0.00000000
Si      -2.22952273      -0.21140348      -2.55300459       0.00000000
Si      -2.13056260       2.77182660       0.19179773       0.00000000
Si       1.30751686      -1.30799253       2.99938506       0.00000000
Si       0.49441779       2.54531415      -2.66209064       0.00000000
