10
Lattice="16.290000149 0.0 0.0 0.0 16.290000149 0.0 0.0 0.0 29.1751946751" Properties=species:S:1:pos:R:3:initial_magmoms:R:1 pbc="T T T"
Si       1.35153407       1.35322660       1.36125623       0.00000000
Si       1.38856287      -1.36042678      -1.32373693       0.00000000
Si      -1.33889140      -1.35703846       1.38045351       0.00000000
Si      -1.34535853       1.38077299      -1.35448759       0.00000000
Si      -2.68965821       2.71189406       0.03203436       0.00000000
Si       0.05280029      -2.73786033      -2.66745887       0.00000000
Si      -2.70345584       0.03083697      -2.70707879       0.00000000
Si       2.69057045      -0.00562005       2.72429215       0.00000000
Si       2.71062344       2.70466130      -0.00137123       0.00000000
Si      -2.69770547      -2.72295497       0.04997711       0.00000000
