10
Lattice="16.290000149 0.0 0.0 0.0 16.290000149 0.0 0.0 0.0 29.1751946751" Properties=species:S:1:pos:R:3:initial_magmoms:R:1 pbc="T T T"
Si       1.36936999      -1.34788348       1.34118370       0.00000000
Si       1.37990962       1.34307793      -1.33552371       0.00000000
Si      -1.35065278       1.37668420       1.34859420       0.00000000
Si      -1.38061009      -1.34421823      -1.35632563       0.00000000
Si      -0.05447376       2.68873620      -2.59761346       0.00000000
Si      -0.00641826      -2.68983740       2.68330100       0.00000000
Si      -2.72779310       0.02168199       2.68105451       0.00000000
Si       2.72605007       0.01571985       2.69911396       0.00000000
Si       2.72486090      -2.70042590      -0.02497397       0.00000000
Si      -0.04484637      -2.78544342      -2.64519820       0.00000000
