10
Lattice="16.290000149 0.0 0.0 0.0 16.290000149 0.0 0.0 0.0 29.1751946751" Properties=species:S:1:pos:R:3:initial_magmoms:R:1 pbc="T T T"
Si      -1.36070371      -1.36244674       1.34345936       0.00000000
Si       1.35485560       1.35387820       1.35970995       0.00000000
Si       1.36976095      -1.37961640      -1.32143209       0.00000000
Si      -1.38336310       1.33773481      -1.35078234       0.00000000
Si      -0.01933623       2.69949737      -2.67991668       0.00000000
Si       2.71630865      -0.04051323       2.66471641       0.00000000
Si      -0.00263898      -2.70663239      -2.68630605       0.00000000
Si      -2.73487926       0.00213399       2.67650318       0.00000000
Si      -0.01000206      -2.73893547       2.68537244       0.00000000
Si       2.73064386       2.69583212       0.01759264       0.00000000
