10
Lattice="16.290000149 0.0 0.0 0.0 16.290000149 0.0 0.0 0.0 29.1751946751" Properties=species:S:1:pos:R:3:initial_magmoms:R:1 pbc="T T T"
H        0.60062860       0.26806824      -1.36172304       0.00000000
Si       1.63942562      -0.95369806       1.35652985       0.00000000
Si      -0.88669729       1.85798855       1.13275611       0.00000000
Si      -1.80071291      -1.59259186      -0.15672915       0.00000000
H        1.80564878       1.98975836      -0.86396504       0.00000000
H       -1.16942653       1.03744495      -2.51315127       0.00000000
H       -0.22985190      -0.66155320      -2.98220087       0.00000000
Si      -2.18461934       0.51526899       2.63653317       0.00000000
Si       2.59854824      -2.42663987      -0.14418381       0.00000000
Si       0.35885241      -2.43050060       2.67218526       0.00000000
