10
Lattice="16.290000149 0.0 0.0 0.0 16.290000149 0.0 0.0 0.0 29.1751946751" Properties=species:S:1:pos:R:3:initial_magmoms:R:1 pbc="T T T"
H       -1.18649845       0.51608349      -0.79479065       0.00000000
Si       1.32672277      -1.07028559      -1.62777164       0.00000000
Si       1.30049587       1.67094677       1.17707323       0.00000000
H       -1.75702313       0.63343666       1.54599357       0.00000000
Si      -0.69294403      -1.86440681       1.41709756       0.00000000
H       -0.55503289       2.17000721      -1.90449836       0.00000000
H        1.51449760      -1.08937747       2.53100649       0.00000000
Si      -3.06867765       1.09002907       0.93512334       0.00000000
H       -1.98858548       1.25783236      -2.45707655       0.00000000
Si       2.55145385       0.01733256       2.32605075       0.00000000
