10
Lattice="16.290000149 0.0 0.0 0.0 16.290000149 0.0 0.0 0.0 29.1751946751" Properties=species:S:1:pos:R:3:initial_magmoms:R:1 pbc="T T T"
Si       1.30013749      -1.34889346       1.41948992       0.00000000
Si      -1.37727064       1.34840476       1.35256203       0.00000000
Si      -1.42737868      -1.40507767      -1.24310836       0.00000000
Si       1.42750900       1.39142665      -1.28137455       0.00000000
Si      -2.63068841      -0.00702099      -2.68268541       0.00000000
Si       2.71551044      -0.05921415      -2.60762347       0.00000000
Si       0.05217687       2.65650806      -2.70025763       0.00000000
Si      -0.11269422      -2.72874607      -2.64477224       0.00000000
Si       2.63039519      -2.76906545       0.13373909       0.00000000
Si      -0.03109761       2.70609482       2.71498527       0.00000000
