10
Lattice="16.290000149 0.0 0.0 0.0 16.290000149 0.0 0.0 0.0 29.1751946751" Properties=species:S:1:pos:R:3:initial_magmoms:R:1 pbc="T T T"
Si       1.31237128      -1.26496738       1.47436846       0.00000000
Si      -0.85704949      -1.94062772      -1.03637294       0.00000000
Si      -1.43469289       1.36976095       1.28536280       0.00000000
Si       1.22175001       1.43589835      -1.44306640       0.00000000
Si       2.56907963      -2.66890475       0.11142882       0.00000000
Si       2.61702110       2.75625174      -0.07632814       0.00000000
Si      -0.06364503       2.77607667       2.59982786       0.00000000
Si      -0.09853821      -2.67038714       2.73158303       0.00000000
Si       2.76089439       0.16379595      -2.63825742       0.00000000
Si      -1.50820966      -1.52122537      -3.16892504       0.00000000
