10
Lattice="16.290000149 0.0 0.0 0.0 16.290000149 0.0 0.0 0.0 29.1751946751" Properties=species:S:1:pos:R:3:initial_magmoms:R:1 pbc="T T T"
Si       0.64505143       0.82531657      -1.07886952       0.00000000
H       -1.43355259      -0.91217485      -0.55257819       0.00000000
H       -0.63146557      -1.65392372       1.10970770       0.00000000
Si      -2.24624441       0.94996765       1.63897491       0.00000000
Si       0.55503289      -2.17000721       1.90449836       0.00000000
Si       1.91980910       2.28910340       0.21788035       0.00000000
Si       1.88211404      -0.54094203      -2.49757172       0.00000000
Si      -2.53366517       1.83529658      -0.60398488       0.00000000
Si      -0.93470392       1.91140346      -2.39872616       0.00000000
Si      -2.28174032      -1.84715570      -1.35749263       0.00000000
