10
Lattice="16.290000149 0.0 0.0 0.0 16.290000149 0.0 0.0 0.0 29.1751946751" Properties=species:S:1:pos:R:3:initial_magmoms:R:1 pbc="T T T"
Si       1.37727064       1.36397800       1.30643604       0.00000000
Si      -1.31709538       1.39134520      -1.34191308       0.00000000
Si       1.32789565      -1.35840682      -1.36621602       0.00000000
Si      -1.37108044      -1.35812989       1.33753680       0.00000000
Si      -2.62886393       0.03184695      -2.68872759       0.00000000
Si      -0.00700470       2.67900455       2.66497898       0.00000000
Si       2.73880515       0.04701294      -2.62343059       0.00000000
Si       2.70733286      -0.00239463       2.68163802       0.00000000
Si      -0.09125658      -2.78886432      -2.60122535       0.00000000
Si      -0.00829161      -2.72349254       2.67346896       0.00000000
