10
Lattice="16.290000149 0.0 0.0 0.0 16.290000149 0.0 0.0 0.0 29.1751946751" Properties=species:S:1:pos:R:3:initial_magmoms:R:1 pbc="T T T"
Si      -1.35957970       1.35708570       1.34045432       0.00000000
Si       1.34843734       1.37318022      -1.33803278       0.00000000
Si       1.38251602      -1.35904376       1.32242405       0.00000000
Si      -1.35514882      -1.37215721      -1.33826618       0.00000000
Si       2.67869504      -0.04699176      -2.62378361       0.00000000
Si       0.00537570      -2.71404597       2.65488437       0.00000000
Si      -2.72500752      -0.01085240      -2.65147087       0.00000000
Si       0.01311345       2.70521354       2.68338853       0.00000000
Si       2.73202850       0.01104625       2.67384824       0.00000000
Si      -2.70471017       0.00238486       2.70573673       0.00000000
