10
Lattice="16.290000149 0.0 0.0 0.0 16.290000149 0.0 0.0 0.0 29.1751946751" Properties=species:S:1:pos:R:3:initial_magmoms:R:1 pbc="T T T"
Si       0.06906960       1.07719255       1.05917627       0.00000000
H        1.15029067       1.81253945      -1.93387778       0.00000000
Si      -2.45926874      -1.38510613      -1.03694477       0.00000000
H       -1.20705643      -2.15115968       1.74009614       0.00000000
Si      -1.54831564       0.39969144       2.62390031       0.00000000
Si      -0.46802799      -2.27381524      -2.01346771       0.00000000
Si       2.26573702       1.27018018       1.71550145       0.00000000
Si      -0.38252178       3.20917890       0.16778654       0.00000000
Si      -3.08397396      -0.31952835       1.01299193       0.00000000
Si       2.28792075       0.84582568      -2.22078664       0.00000000
