10
Lattice="16.290000149 0.0 0.0 0.0 16.290000149 0.0 0.0 0.0 29.1751946751" Properties=species:S:1:pos:R:3:initial_magmoms:R:1 pbc="T T T"
H        1.05772600      -1.71761762      -0.80373198       0.00000000
Si      -0.24697269       0.51956955      -2.29566391       0.00000000
Si       1.94331557       0.85235797       1.05748206       0.00000000
Si      -1.75029536       1.54028467       0.44700570       0.00000000
Si      -0.83647522      -1.99814771       1.08942015       0.00000000
Si       0.70793083       2.05171167       2.65294801       0.00000000
Si      -2.17769609      -0.84304009       2.64293216       0.00000000
Si       1.97605847      -2.45460980      -1.77176493       0.00000000
Si      -2.14422014      -0.77770090      -2.92672337       0.00000000
Si      -0.71032546       3.39385212       1.39926363       0.00000000
