10
Lattice="16.290000149 0.0 0.0 0.0 16.290000149 0.0 0.0 0.0 29.1751946751" Properties=species:S:1:pos:R:3:initial_magmoms:R:1 pbc="T T T"
Si       1.32051628       1.32208012      -1.36742912       0.00000000
Si      -1.25670835       1.40393737       1.36293964       0.00000000
Si      -1.72250462      -0.94143169      -1.27577875       0.00000000
Si       1.45201715      -1.38355858       1.22521814       0.00000000
Si      -3.42612912       0.72827704      -1.14780176       0.00000000
Si      -2.56907963       2.66890475      -0.11142882       0.00000000
Si      -2.58918149      -2.66894385       0.10560837       0.00000000
Si       2.58840120      -0.10446777      -2.69142338       0.00000000
Si      -2.66761784      -0.00148239       2.62015421       0.00000000
Si       2.81234798       0.00750969       2.54925849       0.00000000
