10
Lattice="16.290000149 0.0 0.0 0.0 16.290000149 0.0 0.0 0.0 29.1751946751" Properties=species:S:1:pos:R:3:initial_magmoms:R:1 pbc="T T T"
H        1.18899082       0.37928007       0.89410302       0.00000000
Si       0.84115045       1.46904850      -1.65198705       0.00000000
Si      -0.76801486      -2.11405106       1.17400983       0.00000000
Si       0.54766980      -2.38001789      -0.73757810       0.00000000
Si      -2.20061612       1.41584536       1.03627374       0.00000000
H        2.60506424      -1.66454480       1.35775521       0.00000000
Si      -3.41627367      -0.17505234      -0.37370507       0.00000000
H       -1.88346122      -1.57169179      -2.47536939       0.00000000
Si      -0.24373098      -1.22784247       3.27088943       0.00000000
Si       1.26472303       3.29240451      -0.18546671       0.00000000
