10
Lattice="16.290000149 0.0 0.0 0.0 16.290000149 0.0 0.0 0.0 29.1751946751" Properties=species:S:1:pos:R:3:initial_magmoms:R:1 pbc="T T T"
Si      -1.34708527       1.34462548      -1.36472808       0.00000000
Si      -1.35609364      -1.36969579       1.34719379       0.00000000
Si       1.35602848       1.34848621       1.36881261       0.00000000
Si       1.34521192      -1.30292308      -1.42427465       0.00000000
Si      -2.77048920      -0.11464902      -2.58892508       0.00000000
Si       0.11513772       2.78010274      -2.57890924       0.00000000
Si      -2.70104492       2.67380804       0.03664404       0.00000000
Si       2.69166188      -2.68708439      -0.05995503       0.00000000
Si       0.00592956      -2.70943427       2.71186352       0.00000000
Si      -2.71158455      -0.01715337       2.71335146       0.00000000
