10
Lattice="16.290000149 0.0 0.0 0.0 16.290000149 0.0 0.0 0.0 29.1751946751" Properties=species:S:1:pos:R:3:initial_magmoms:R:1 pbc="T T T"
Si       1.36847539      -1.35624025       1.34118370       0.00000000
Si       1.39920920       1.33423246      -1.33412330       0.00000000
Si      -1.35096229       1.36098064       1.35991417       0.00000000
Si      -1.35602848      -1.34848621      -1.36881261       0.00000000
Si       0.08219934       2.76908174      -2.61010044       0.00000000
Si       2.69948597      -2.70544322      -0.04968536       0.00000000
Si       0.02026476      -2.70967862       2.69858881       0.00000000
Si      -2.71093295      -0.00203625       2.70246911       0.00000000
Si       2.68253623       0.00977400       2.73572883       0.00000000
Si      -2.71093295       2.71378696       0.00717710       0.00000000
