10
Lattice="16.290000149 0.0 0.0 0.0 16.290000149 0.0 0.0 0.0 29.1751946751" Properties=species:S:1:pos:R:3:initial_magmoms:R:1 pbc="T T T"
Si      -1.36673101      -0.54046963      -0.28912618       0.00000000
H        0.93957463      -1.69899815      -0.46904960       0.00000000
H        1.77005513      -0.76937671       1.15142823       0.00000000
Si       1.16942653      -1.03744495       2.51315127       0.00000000
Si      -2.69711903       0.83070856       1.03735322       0.00000000
Si      -1.79305661      -0.10990863      -2.50165624       0.00000000
Si       2.08626032      -1.77813497      -1.45021140       0.00000000
Si      -1.13881762       2.12379248       2.23595774       0.00000000
Si      -1.78598675      -2.75240730       0.30292605       0.00000000
Si       0.04460202       1.18141597      -3.11669852       0.00000000
