10
Lattice="16.290000149 0.0 0.0 0.0 16.290000149 0.0 0.0 0.0 29.1751946751" Properties=species:S:1:pos:R:3:initial_magmoms:R:1 pbc="T T T"
Si      -1.24988284       1.34289874       1.48877488       0.00000000
Si       1.35832537      -1.38670711       1.39588719       0.00000000
Si      -1.44480898      -1.43998714      -1.27854456       0.00000000
Si       1.52083441       1.37629324      -1.28047012       0.00000000
H       -0.64516546       1.17677332      -2.72516741       0.00000000
Si      -0.04201191      -2.61842204      -2.75615147       0.00000000
Si      -2.88391484       2.52534098       0.27792290       0.00000000
Si      -2.58749548      -0.06034305       2.84203157       0.00000000
Si       0.13510926       2.62013249       2.86567806       0.00000000
Si       3.72606060       0.99639415      -0.47631423       0.00000000
