10
Lattice="16.28999089631971 0.0 0.0 0.0 16.28999089631971 0.0 0.0 0.0 34.51007289658418" Properties=species:S:1:pos:R:3:initial_magmoms:R:1 pbc="T T T"
Si      -1.36612175       1.28394701      -1.36873928       0.00000000
Si      -1.39166773      -1.28808176       1.39945326       0.00000000
Si       1.07066025       1.77180645       1.18448989       0.00000000
Si       1.37753127      -1.43764025      -1.34485829       0.00000000
Si       1.23535215       0.34396025       3.07191586       0.00000000
Si      -2.39122539       0.42965380       2.82023375       0.00000000
Si       0.00669519       2.62898625      -2.72898907       0.00000000
Si      -2.73547286       2.63489952       0.13093129       0.00000000
Si      -2.69006984      -2.72744987      -0.01259618       0.00000000
Si      -2.71388652      -0.08148146      -2.73257812       0.00000000
