10
Lattice="16.28999089631971 0.0 0.0 0.0 16.28999089631971 0.0 0.0 0.0 34.51007289658418" Properties=species:S:1:pos:R:3:initial_magmoms:R:1 pbc="T T T"
Si      -0.92263302      -1.48178727      -1.60375300       0.00000000
Si      -1.85140085       0.33684462       1.47458173       0.00000000
Si       0.86004684       1.88507458      -1.27494085       0.00000000
Si       1.99094751      -0.69250419       1.26683097       0.00000000
Si      -1.01387331       3.22091486      -0.49884338       0.00000000
Si      -1.76697304       0.25303257      -2.94740344       0.00000000
Si      -2.76653070       1.97076813      -1.52662295       0.00000000
Si       3.67160310       1.00755279       0.90609698       0.00000000
Si      -3.08991068       2.23586670       0.90751189       0.00000000
Si       0.84084093      -2.55507021      -2.89546575       0.00000000
