10
Lattice="16.28999089631971 0.0 0.0 0.0 16.28999089631971 0.0 0.0 0.0 34.51007289658418" Properties=species:S:1:pos:R:3:initial_magmoms:R:1 pbc="T T T"
Si       0.95817780       2.11890776       0.23887886       0.00000000
Si      -1.18001502      -0.43021890       1.99813434       0.00000000
Si       1.84702536      -1.19928609       0.86409820       0.00000000
Si      -0.49313088      -0.70791453      -2.25057566       0.00000000
Si       0.89119332      -1.05969708       3.07622962       0.00000000
Si       3.01953069       1.71317273      -0.68078059       0.00000000
Si       1.67394411      -3.17933559      -0.35866339       0.00000000
Si      -2.58980701      -2.19426300       1.39717559       0.00000000
Si      -0.07871328       3.46762691      -1.29050490       0.00000000
Si       2.36281563       1.06466553      -2.82527223       0.00000000
