10
Lattice="16.28999089631971 0.0 0.0 0.0 16.28999089631971 0.0 0.0 0.0 34.51007289658418" Properties=species:S:1:pos:R:3:initial_magmoms:R:1 pbc="T T T"
Si      -2.22450864       0.55651527      -0.80770871       0.00000000
Si       1.22293917      -1.05155208      -1.94619665       0.00000000
Si       2.02266414       1.72144575      -0.25851510       0.00000000
Si       0.78133356      -0.27306927       2.72353648       0.00000000
Si      -0.90464560      -2.63231739       0.87300180       0.00000000
Si       2.82579372      -1.80643068      -0.37094898       0.00000000
Si      -3.52742750       1.04018166       1.13189651       0.00000000
Si       3.87407151       0.21712941      -0.24816207       0.00000000
Si      -1.78430397      -3.22533855      -1.23974055       0.00000000
Si      -3.20758964      -1.41149592      -1.71466844       0.00000000
