10
Lattice="16.28999089631971 0.0 0.0 0.0 16.28999089631971 0.0 0.0 0.0 34.51007289658418" Properties=species:S:1:pos:R:3:initial_magmoms:R:1 pbc="T T T"
Si       1.56706542      -1.13957852       1.39632664       0.00000000
Si      -1.16432775       1.59941899       1.38258473       0.00000000
Si       1.86719238       1.21935700      -1.18397328       0.00000000
Si      -2.30444856      -2.32812349      -0.01710320       0.00000000
Si      -1.84692762      -0.21908910      -2.78407895       0.00000000
Si       0.47177469       0.77372776      -3.33133999       0.00000000
Si       0.21356190      -2.47763311       2.77906666       0.00000000
Si      -2.51146188       0.24885256       2.77268230       0.00000000
Si       3.08065077      -2.48346493      -0.09846420       0.00000000
Si      -2.67990048       2.96437438      -0.11346228       0.00000000
