10
Lattice="16.28999089631971 0.0 0.0 0.0 16.28999089631971 0.0 0.0 0.0 34.51007289658418" Properties=species:S:1:pos:R:3:initial_magmoms:R:1 pbc="T T T"
Si      -1.35826020      -1.35599229       1.35755801       0.00000000
Si       1.35620766       1.35927119       1.35741997       0.00000000
Si       1.36142046      -1.36099332      -1.35565995       0.00000000
Si      -1.36360332       1.36549234      -1.36204432       0.00000000
Si       2.71088406      -2.71088046       0.00010353       0.00000000
Si      -0.00158013      -2.71347057       2.71449483       0.00000000
Si       2.71422351       0.00167410       2.71414973       0.00000000
Si       2.71336014       2.71586329       0.00003451       0.00000000
Si      -2.71772586      -2.71304703      -0.00117334       0.00000000
Si      -2.71627605       0.00183746       2.71477091       0.00000000
