10
Lattice="16.28999089631971 0.0 0.0 0.0 16.28999089631971 0.0 0.0 0.0 34.51007289658418" Properties=species:S:1:pos:R:3:initial_magmoms:R:1 pbc="T T T"
Si       1.82623932       0.94910427      -1.09493620       0.00000000
Si       0.16469190      -1.42784619       1.88742596       0.00000000
Si      -1.07066025      -1.77180645      -1.18448989       0.00000000
Si      -1.02047076       1.69707591       1.34875793       0.00000000
Si      -1.70922825      -0.09200592       2.66352342       0.00000000
Si       0.29975229       2.22228180      -2.52886505       0.00000000
Si      -2.43678200      -0.48785944      -2.55322917       0.00000000
Si       2.29684113      -0.54861951       2.69903431       0.00000000
Si       0.74370366       2.98841679       2.26983229       0.00000000
Si      -2.46232798      -3.05988821       0.21496336       0.00000000
