10
Lattice="16.28999089631971 0.0 0.0 0.0 16.28999089631971 0.0 0.0 0.0 34.51007289658418" Properties=species:S:1:pos:R:3:initial_magmoms:R:1 pbc="T T T"
Si       0.60789393       2.36411883      -0.06318798       0.00000000
Si       1.28075238      -1.10326143      -1.84383972       0.00000000
Si      -2.31870231      -0.99281686       0.54726104       0.00000000
Si       1.39541769       0.44562924       2.14736671       0.00000000
Si      -0.47177469      -0.77372776       3.33133999       0.00000000
Si       1.77003882       2.52294633      -2.17027068       0.00000000
Si       2.85983982       0.52922952      -2.51198961       0.00000000
Si      -0.15703560      -1.48812245      -3.73689082       0.00000000
Si      -2.61664641      -2.89993670      -0.98857610       0.00000000
Si      -1.25048556       3.86261964      -0.00210512       0.00000000
