10
Lattice="16.28999089631971 0.0 0.0 0.0 16.28999089631971 0.0 0.0 0.0 34.51007289658418" Properties=species:S:1:pos:R:3:initial_magmoms:R:1 pbc="T T T"
Si      -1.35793440      -1.35679410      -1.35738546       0.00000000
Si       1.35632169       1.35858600      -1.35728193       0.00000000
Si      -1.35803214       1.35731538       1.35735095       0.00000000
Si       1.35783666      -1.35795069       1.35766154       0.00000000
Si      -2.71402803       0.00122175       2.71449483       0.00000000
Si      -0.00118917       2.71725345      -2.71194108       0.00000000
Si       2.71480995       2.71482624       0.00017255       0.00000000
Si      -2.71490769       2.71480995      -0.00006902       0.00000000
Si       2.71480995      -2.71500543       0.00010353       0.00000000
Si       2.71544526      -0.00172674       2.71473640       0.00000000
