10
Lattice="16.28999089631971 0.0 0.0 0.0 16.28999089631971 0.0 0.0 0.0 34.51007289658418" Properties=species:S:1:pos:R:3:initial_magmoms:R:1 pbc="T T T"
Si      -0.62902206       1.07945685      -1.99992886       0.00000000
Si       2.21788350       0.89076978       0.12955089       0.00000000
Si      -0.45352989       1.34470692       1.93470479       0.00000000
Si       0.59038218      -2.35535481      -0.31718226       0.00000000
Si       2.65652433      -0.36359280       2.02874479       0.00000000
Si       1.77722271      -2.52384228       1.69044236       0.00000000
Si      -3.50671572      -0.29620107      -0.30041035       0.00000000
Si      -0.13528845       3.48936687       1.01028295       0.00000000
Si      -0.72420453       3.39832206      -1.26079171       0.00000000
Si       1.24654338       0.73779039      -3.40618061       0.00000000
