10
Lattice="16.28999089631971 0.0 0.0 0.0 16.28999089631971 0.0 0.0 0.0 34.51007289658418" Properties=species:S:1:pos:R:3:initial_magmoms:R:1 pbc="T T T"
Si       1.82905749      -1.02825738      -1.11971445       0.00000000
Si      -1.02635145       1.71429444      -1.29982262       0.00000000
Si      -1.36156707      -2.08551096       0.09959613       0.00000000
Si       0.88137045       1.40320431       2.04586179       0.00000000
Si       1.15645968      -2.25082188       1.88659772       0.00000000
Si       0.25607880      -0.54475389       3.25550955       0.00000000
Si      -2.27442609       0.26974611      -2.62746038       0.00000000
Si       0.56957985      -2.39596578      -2.64126442       0.00000000
Si      -3.36987972      -1.28300040      -1.11816150       0.00000000
Si      -2.78982540       2.78757738      -0.00810987       0.00000000
