10
Lattice="16.28999089631971 0.0 0.0 0.0 16.28999089631971 0.0 0.0 0.0 34.51007289658418" Properties=species:S:1:pos:R:3:initial_magmoms:R:1 pbc="T T T"
Si       0.17308125       1.98004950       1.22276159       0.00000000
Si       0.46586142      -1.51630578       1.73285526       0.00000000
Si      -2.07998865      -0.82626138      -0.75625416       0.00000000
Si       1.30929246       0.38320596      -1.93284124       0.00000000
Si      -1.36519974      -2.88015345      -1.68933803       0.00000000
Si      -1.67394411       3.17933559       0.35866339       0.00000000
Si      -0.04821840       2.07707274      -2.97118090       0.00000000
Si      -1.74047247      -2.01277611       2.51091980       0.00000000
Si       3.21044949       1.50788385      -1.05863159       0.00000000
Si       1.47637899      -3.36535110       0.59799088       0.00000000
