10
Lattice="16.28999089631971 0.0 0.0 0.0 16.28999089631971 0.0 0.0 0.0 34.51007289658418" Properties=species:S:1:pos:R:3:initial_magmoms:R:1 pbc="T T T"
Si      -1.35291708       1.35105513       1.36366629       0.00000000
Si       1.34713413       1.35056643      -1.39009757       0.00000000
Si       1.36360332      -1.36549234       1.36204432       0.00000000
Si      -1.36125756      -1.36231219      -1.39208190       0.00000000
Si       2.51146188      -0.24885256      -2.77268230       0.00000000
Si       0.20701332      -2.57697604      -2.78978550       0.00000000
Si      -2.70684740       2.70719763       0.00414121       0.00000000
Si       0.00421911       2.70879405       2.71942977       0.00000000
Si      -2.71056803      -0.00528610       2.71963683       0.00000000
Si       2.72287350       2.70778407       0.00103530       0.00000000
