10
Lattice="16.28999089631971 0.0 0.0 0.0 16.28999089631971 0.0 0.0 0.0 34.51007289658418" Properties=species:S:1:pos:R:3:initial_magmoms:R:1 pbc="T T T"
Si       0.67256800       0.08822664      -2.24795289       0.00000000
Si      -2.34511933      -0.13305672      -0.21679240       0.00000000
Si       0.76862687       2.04362937       0.90903034       0.00000000
Si       0.95572892      -1.57635398       1.50577885       0.00000000
Si       2.90134299       2.37141675      -0.10784404       0.00000000
Si      -3.20547568      -0.21742263       1.96900782       0.00000000
Si       0.54594420       2.31661719      -2.92852642       0.00000000
Si      -0.79888882       3.70758771       0.41205050       0.00000000
Si       3.01393947      -0.54828067       2.28401594       0.00000000
Si      -2.94130075      -2.34855278      -0.81033147       0.00000000
