10
Lattice="16.28999089631971 0.0 0.0 0.0 16.28999089631971 0.0 0.0 0.0 34.51007289658418" Properties=species:S:1:pos:R:3:initial_magmoms:R:1 pbc="T T T"
Si      -1.30929246      -0.38320596       1.93284124       0.00000000
Si       1.90115703       1.12467789       0.87420966       0.00000000
Si      -1.35751086       1.69386678      -1.03833965       0.00000000
Si       0.43158726      -2.10489606      -1.11919680       0.00000000
Si      -1.13621121       1.59684354       3.15560283       0.00000000
Si      -3.38928111      -1.20946734       1.17658708       0.00000000
Si       0.99052974       2.54980854       2.62304309       0.00000000
Si       3.14704881      -0.47009682       2.17965742       0.00000000
Si      -0.42182955      -3.83960187       0.25975746       0.00000000
Si      -0.91531881      -2.31109488      -3.04572270       0.00000000
