10
Lattice="16.28999089631971 0.0 0.0 0.0 16.28999089631971 0.0 0.0 0.0 34.51007289658418" Properties=species:S:1:pos:R:3:initial_magmoms:R:1 pbc="T T T"
Si      -2.12674095      -0.95296500       0.53255974       0.00000000
Si       1.19772225       0.55723203       2.00703794       0.00000000
Si      -0.95423562       1.95949382      -1.01231904       0.00000000
Si       0.91062729      -1.42513065      -1.74883343       0.00000000
Si       2.64039723       2.19341659       1.09048440       0.00000000
Si       2.15651907      -3.01990536      -0.44338566       0.00000000
Si      -1.61095068       1.31098662      -3.15681068       0.00000000
Si      -0.99052974      -2.54980854      -2.62304309       0.00000000
Si      -2.29982220      -2.93301450      -0.69020184       0.00000000
Si      -3.01558851       2.36522885      -0.09265960       0.00000000
