10
Lattice="16.28999089631971 0.0 0.0 0.0 16.28999089631971 0.0 0.0 0.0 34.51007289658418" Properties=species:S:1:pos:R:3:initial_magmoms:R:1 pbc="T T T"
Si       1.73644884      -0.07868070       1.51378519       0.00000000
Si       0.77151069      -0.66772710      -2.10815251       0.00000000
Si      -1.42135137      -1.72247202       0.72478096       0.00000000
Si      -0.53457264       2.34341424       0.11512567       0.00000000
Si       3.08990349       1.18105758      -0.06432681       0.00000000
Si       2.47132332       0.97168221      -2.36059384       0.00000000
Si      -2.87458227       0.39465783      -2.06801727       0.00000000
Si      -0.90416016       2.45974113       2.45394363       0.00000000
Si      -3.30781482      -1.50309459      -0.69023635       0.00000000
Si       1.09170693       1.35552348       3.29478203       0.00000000
