10
Lattice="16.28999089631971 0.0 0.0 0.0 16.28999089631971 0.0 0.0 0.0 34.51007289658418" Properties=species:S:1:pos:R:3:initial_magmoms:R:1 pbc="T T T"
Si       2.14739667      -0.68162247       0.41156736       0.00000000
Si      -0.43864083       1.25436258      -1.89919390       0.00000000
Si      -0.87930162      -2.16024948      -0.33830243       0.00000000
Si      -1.43856990       1.23144255       1.48966264       0.00000000
Si      -2.65652433       0.36359280      -2.02874479       0.00000000
Si       2.68439652       1.16506080       1.70597190       0.00000000
Si      -3.11005422       1.70829972      -0.09404000       0.00000000
Si       1.88771778      -2.63277351       1.70241736       0.00000000
Si      -2.26460322      -0.45478422       2.85308736       0.00000000
Si      -2.53850328      -2.29231251       1.38689158       0.00000000
