10
Lattice="16.28999089631971 0.0 0.0 0.0 16.28999089631971 0.0 0.0 0.0 34.51007289658418" Properties=species:S:1:pos:R:3:initial_magmoms:R:1 pbc="T T T"
Si       1.75135419       1.49623650       0.29592404       0.00000000
Si       0.80552421      -2.06720100      -0.92110887       0.00000000
Si      -1.24589178       1.59477471      -1.30544777       0.00000000
Si      -0.41275602      -0.78234354       2.24329403       0.00000000
Si       2.93542542       0.92919789      -1.65783032       0.00000000
Si      -0.67085478      -3.59647362       0.15705543       0.00000000
Si      -2.15651907       3.01990536       0.44338566       0.00000000
Si       2.79218745       0.93149478       2.30486004       0.00000000
Si      -3.14704881       0.47009682      -2.17965742       0.00000000
Si       0.07931601      -3.08747628       2.32946573       0.00000000
