10
Lattice="16.28999089631971 0.0 0.0 0.0 16.28999089631971 0.0 0.0 0.0 34.51007289658418" Properties=species:S:1:pos:R:3:initial_magmoms:R:1 pbc="T T T"
Si       0.04282641      -0.28675287       2.34333879       0.00000000
Si       1.96703379      -1.29363777      -0.42105763       0.00000000
Si       0.75479715       2.26566926       0.32449840       0.00000000
Si      -2.02766517      -1.15298991      -0.84656707       0.00000000
Si       1.09136484      -3.21898545       0.56120312       0.00000000
Si       2.82326877       2.06189765      -0.95655074       0.00000000
Si      -0.09270639      -2.65194684       2.51495748       0.00000000
Si      -0.85354713       3.62378285      -0.73430574       0.00000000
Si       2.35491498      -0.11236842       3.03530065       0.00000000
Si       3.65575293      -0.73788813       1.12485645       0.00000000
