10
Lattice="16.28999089631971 0.0 0.0 0.0 16.28999089631971 0.0 0.0 0.0 34.51007289658418" Properties=species:S:1:pos:R:3:initial_magmoms:R:1 pbc="T T T"
Si      -1.75135419      -1.49623650      -0.29592404       0.00000000
Si       1.04083326      -0.56474172       2.00893600       0.00000000
Si       1.18407123      -0.56703861      -1.95375436       0.00000000
Si       0.13553280       2.36519397      -0.17161869       0.00000000
Si      -2.99724597       0.09853821      -1.60137181       0.00000000
Si       2.44762137       2.53957842       0.52034317       0.00000000
Si       0.09270639       2.65194684      -2.51495748       0.00000000
Si      -2.16411021      -2.27858004       1.94736999       0.00000000
Si      -0.65194209      -1.26969147       3.41035633       0.00000000
Si       3.15511236      -1.61099955      -1.31348862       0.00000000
