10
Lattice="16.28999089631971 0.0 0.0 0.0 16.28999089631971 0.0 0.0 0.0 34.51007289658418" Properties=species:S:1:pos:R:3:initial_magmoms:R:1 pbc="T T T"
Si       1.35870003       1.34413677       1.36946399       0.00000000
Si      -1.35943308       1.35503478      -1.36259648       0.00000000
Si       1.35747828      -1.36121846      -1.36256197       0.00000000
Si      -1.36031274      -1.37695297       1.38271586       0.00000000
Si      -0.05993091       2.73456972       2.66517991       0.00000000
Si       2.70902909      -2.71488230      -0.00490043       0.00000000
Si       2.71449452       2.71107954       0.00000000       0.00000000
Si      -0.00043983       2.71205694      -2.71908467       0.00000000
Si      -2.71744893       2.71494027      -0.00576319       0.00000000
Si      -2.71570590      -2.71732580      -0.00365807       0.00000000
