10
Lattice="16.28999089631971 0.0 0.0 0.0 16.28999089631971 0.0 0.0 0.0 34.51007289658418" Properties=species:S:1:pos:R:3:initial_magmoms:R:1 pbc="T T T"
Si      -1.32874272       1.34263809      -1.48914499       0.00000000
Si      -1.42346907      -1.38861010       1.40980629       0.00000000
Si       1.36935110      -1.35095251      -1.49967057       0.00000000
Si       0.93315703       1.86015510       1.32839698       0.00000000
Si       0.34424747      -2.20524572       2.68930246       0.00000000
Si       2.78566235       0.83398284       2.40231654       0.00000000
Si       2.73547286      -2.63489952      -0.13093129       0.00000000
Si      -2.74737366       2.73307104      -0.19342907       0.00000000
Si       2.72824010       2.80183113      -0.04172270       0.00000000
Si      -2.68744275      -0.00149868      -2.85860898       0.00000000
