10
Lattice="16.28999089631971 0.0 0.0 0.0 16.28999089631971 0.0 0.0 0.0 34.51007289658418" Properties=species:S:1:pos:R:3:initial_magmoms:R:1 pbc="T T T"
Si       1.76771654      -0.81663562       1.27949618       0.00000000
Si      -0.74424123       0.41616226       2.25092076       0.00000000
Si       1.42346907       1.38861010      -1.40980629       0.00000000
Si      -1.39347918      -1.48267249      -1.34413358       0.00000000
Si      -1.33333650       2.72163709       2.06353096       0.00000000
Si       2.76727419      -2.53437118      -0.14128432       0.00000000
Si      -2.62428642       0.01015844      -2.88569940       0.00000000
Si       0.08042373      -2.67407422      -2.90143600       0.00000000
Si       0.09472635       2.73124819      -2.89895127       0.00000000
Si       2.35662610       3.24876520      -0.08140931       0.00000000
