10
Lattice="16.28999089631971 0.0 0.0 0.0 16.28999089631971 0.0 0.0 0.0 34.51007289658418" Properties=species:S:1:pos:R:3:initial_magmoms:R:1 pbc="T T T"
Si       1.16598674       1.32034685       1.54287720       0.00000000
Si      -1.14704406      -1.74195227       1.07005443       0.00000000
Si       1.98950977      -0.85145942      -1.14784018       0.00000000
Si      -1.97952822       1.05783350      -1.01135276       0.00000000
Si      -1.96612155      -0.13874519      -3.09006816       0.00000000
Si      -2.83576320      -2.29770191      -0.47585966       0.00000000
Si       1.03936294       3.54873740       0.86230367       0.00000000
Si       0.36758385       0.05673970      -3.81350323       0.00000000
Si       1.56041977       1.98484853      -2.96986951       0.00000000
Si       3.43413467       1.58160587       0.98557372       0.00000000
