10
Lattice="16.28999089631971 0.0 0.0 0.0 16.28999089631971 0.0 0.0 0.0 34.51007289658418" Properties=species:S:1:pos:R:3:initial_magmoms:R:1 pbc="T T T"
Si       0.25125696       2.31580269      -0.32373917       0.00000000
Si       0.01340667      -1.19657869      -2.07871540       0.00000000
Si      -2.06847162       0.20377161       1.28104913       0.00000000
Si       1.97952822      -1.05783350       1.01135276       0.00000000
Si      -2.63810034       0.81674802      -1.74099964       0.00000000
Si      -0.85623498      -3.35553542       0.53549310       0.00000000
Si       0.83248416      -2.79978578       2.08140719       0.00000000
Si      -2.82326877      -2.06189765       0.95655074       0.00000000
Si       2.56600962       2.53071666      -0.47413416       0.00000000
Si      -1.26506511       2.68747533      -2.11809142       0.00000000
