10
Lattice="16.28999089631971 0.0 0.0 0.0 16.28999089631971 0.0 0.0 0.0 34.51007289658418" Properties=species:S:1:pos:R:3:initial_magmoms:R:1 pbc="T T T"
Si       1.35743918      -1.35645201       1.35735095       0.00000000
Si       1.35761837       1.35850455      -1.35683329       0.00000000
Si      -1.35744258      -1.35816246      -1.35766154       0.00000000
Si      -1.35772413       1.35812988       1.35766154       0.00000000
Si       2.71402151      -2.71441899       0.00020706       0.00000000
Si       0.00051802      -2.71349046       2.71521954       0.00000000
Si      -2.71459559       0.00180819       2.71487444       0.00000000
Si      -2.71487252      -2.71494027       0.00003451       0.00000000
Si       2.71582970       0.00187335       2.71428777       0.00000000
Si       2.71495004       2.71546155      -0.00027608       0.00000000
