10
Lattice="16.28999089631971 0.0 0.0 0.0 16.28999089631971 0.0 0.0 0.0 34.51007289658418" Properties=species:S:1:pos:R:3:initial_magmoms:R:1 pbc="T T T"
Si      -0.86035635      -0.08436591       2.18580022       0.00000000
Si       2.34511933       0.13305672       0.21679240       0.00000000
Si      -0.59618142      -2.21549606      -0.59353908       0.00000000
Si      -1.41367878       1.43707122      -1.38675354       0.00000000
Si      -3.09558870       0.27448650       1.66224761       0.00000000
Si      -2.83590981       2.22563754       0.37139761       0.00000000
Si       3.01768733       0.22128336      -2.03116050       0.00000000
Si       0.70465653      -2.84101577      -2.50398327       0.00000000
Si      -0.47679201      -3.58691858       1.40269721       0.00000000
Si      -0.47118825      -2.13971498       3.29923383       0.00000000
