10
Lattice="16.28999089631971 0.0 0.0 0.0 16.28999089631971 0.0 0.0 0.0 34.51007289658418" Properties=species:S:1:pos:R:3:initial_magmoms:R:1 pbc="T T T"
Si      -1.41090948       1.18012905       1.49581579       0.00000000
Si      -1.30844538      -1.32512634      -1.47801345       0.00000000
Si       1.20044268       1.46287458      -1.60787493       0.00000000
Si       1.30554576      -1.53479493       1.47559633       0.00000000
Si       0.40663098      -2.91633354      -2.31933499       0.00000000
Si       2.75732685       2.57800653      -0.03241188       0.00000000
Si      -2.82994767       2.52622062       0.11917715       0.00000000
Si      -0.04968450       2.52760527       2.86979025       0.00000000
Si      -1.00040148       0.08599491      -3.76982867       0.00000000
Si      -2.76990273      -2.76027534       0.04131893       0.00000000
