10
Lattice="16.28999089631971 0.0 0.0 0.0 16.28999089631971 0.0 0.0 0.0 34.51007289658418" Properties=species:S:1:pos:R:3:initial_magmoms:R:1 pbc="T T T"
Si       1.32010902      -1.35645201       1.31687061       0.00000000
Si       1.37697741       1.33439535      -1.34982775       0.00000000
Si      -1.33740900      -1.37608146      -1.35407249       0.00000000
Si      -1.25571465       1.30675122       1.62349278       0.00000000
Si      -2.14348707      -0.85138056       2.55260799       0.00000000
Si       2.41789212       0.31382685       2.55906138       0.00000000
Si      -0.25676298      -2.40404562       2.80052849       0.00000000
Si       0.70100757       2.12007834       2.96379574       0.00000000
Si      -2.67641442       2.67959097       0.03696031       0.00000000
Si      -2.69244378      -0.02308293      -2.71038813       0.00000000
