10
Lattice="16.28999089631971 0.0 0.0 0.0 16.28999089631971 0.0 0.0 0.0 34.51007289658418" Properties=species:S:1:pos:R:3:initial_magmoms:R:1 pbc="T T T"
Si      -0.27706032      -1.83145212      -1.54391250       0.00000000
Si      -2.09523609       0.81243117       1.07174542       0.00000000
Si       1.36155145      -1.25493273       1.77468149       0.00000000
Si       1.19563128       2.25495954      -0.52903971       0.00000000
Si      -0.93226041      -0.36981558      -3.24501848       0.00000000
Si       0.77258259       0.53080965       3.28877727       0.00000000
Si       1.79334234       2.32205805       2.00759010       0.00000000
Si      -1.47665592       1.02180654       3.36801245       0.00000000
Si       2.32542098       1.78844652      -2.79165940       0.00000000
Si      -2.03947542      -3.44013849      -0.82044293       0.00000000
