10
Lattice="16.28999089631971 0.0 0.0 0.0 16.28999089631971 0.0 0.0 0.0 34.51007289658418" Properties=species:S:1:pos:R:3:initial_magmoms:R:1 pbc="T T T"
Si       1.51366258      -1.46556243      -0.97056183       0.00000000
Si      -1.94173542      -0.69695136      -1.07060659       0.00000000
Si       1.14256987       1.90291635      -0.84722276       0.00000000
Si       0.16882956      -0.07459191       2.37001509       0.00000000
Si      -2.72642472       1.51782075      -1.52990141       0.00000000
Si       1.22775028       2.02194738       2.60074957       0.00000000
Si       0.63405567       3.46291191       0.84032074       0.00000000
Si       3.40070759       1.51524693      -0.41336188       0.00000000
Si      -2.79107973      -2.47816512       0.35441865       0.00000000
Si       1.06078104      -1.42574967      -3.31835242       0.00000000
