10
Lattice="16.28999089631971 0.0 0.0 0.0 16.28999089631971 0.0 0.0 0.0 34.51007289658418" Properties=species:S:1:pos:R:3:initial_magmoms:R:1 pbc="T T T"
Si       1.56751569      -1.66395834       0.49697984       0.00000000
Si       1.05892072       2.09653929       0.23073448       0.00000000
Si      -0.16882956       0.07459191      -2.37001509       0.00000000
Si      -1.67567085      -0.12950550       1.74555497       0.00000000
Si      -1.36331010       2.00469627       2.71062970       0.00000000
Si       1.83033693      -1.39175244       2.85809132       0.00000000
Si       0.86274839       2.62110987       2.51975438       0.00000000
Si       0.79888882      -3.70758771      -0.41205050       0.00000000
Si       1.34483302      -1.39097052      -3.34057692       0.00000000
Si       0.46522611       3.53750382      -1.52969435       0.00000000
