10
Lattice="16.28999089631971 0.0 0.0 0.0 16.28999089631971 0.0 0.0 0.0 34.51007289658418" Properties=species:S:1:pos:R:3:initial_magmoms:R:1 pbc="T T T"
Si       1.35537687      -1.35721764       1.35603956       0.00000000
Si      -1.35560493       1.35764118       1.35548740       0.00000000
Si       1.37370312       1.33530759      -1.36845629       0.00000000
Si      -1.36122498      -1.34747622      -1.37397446       0.00000000
Si       0.01518228       2.69594613      -2.65915790       0.00000000
Si       0.04968450      -2.52760527      -2.86979025       0.00000000
Si       2.71433754       0.00030951       2.71349404       0.00000000
Si      -0.00096111      -2.71454931       2.71339051       0.00000000
Si       2.71349046       2.71453302      -0.00483141       0.00000000
Si      -0.00032580       2.71547784       2.71356306       0.00000000
