10
Lattice="16.28999089631971 0.0 0.0 0.0 16.28999089631971 0.0 0.0 0.0 34.51007289658418" Properties=species:S:1:pos:R:3:initial_magmoms:R:1 pbc="T T T"
Si       1.26880521      -1.41247332       1.50711094       0.00000000
Si       1.13191065       1.72981881      -1.27684722       0.00000000
Si      -1.43330823       1.28490633       1.53374583       0.00000000
Si      -1.55688417      -1.11513195      -1.57546305       0.00000000
Si      -0.92001033       3.42492363      -1.17314440       0.00000000
Si      -2.75732685      -2.57800653       0.03241188       0.00000000
Si      -2.79182907       2.64554487       0.24304423       0.00000000
Si       2.61008384      -2.84620509       0.04164333       0.00000000
Si       2.75042382       2.76495057       0.16506522       0.00000000
Si       2.62249030      -0.04799034       2.89868209       0.00000000
