10
Lattice="16.28999089631971 0.0 0.0 0.0 16.28999089631971 0.0 0.0 0.0 34.51007289658418" Properties=species:S:1:pos:R:3:initial_magmoms:R:1 pbc="T T T"
Si      -1.37697741      -1.33439535       1.34982775       0.00000000
Si      -1.35552348       1.35832536      -1.36080195       0.00000000
Si       1.36067112      -1.35459495      -1.36021528       0.00000000
Si       1.36845774       1.38061008       1.37360520       0.00000000
Si      -0.05686839      -2.69084736       2.66669835       0.00000000
Si      -2.70796815       2.71652040      -0.00024157       0.00000000
Si      -2.71438641      -2.71047681      -0.00424474       0.00000000
Si      -2.71208952       0.00092853      -2.71729015       0.00000000
Si       0.00262269      -2.71336014      -2.71756623       0.00000000
Si       2.71755704      -2.71433754       0.00151844       0.00000000
