10
Lattice="16.28999089631971 0.0 0.0 0.0 16.28999089631971 0.0 0.0 0.0 34.51007289658418" Properties=species:S:1:pos:R:3:initial_magmoms:R:1 pbc="T T T"
Si      -1.74394224       0.75929319       1.44562776       0.00000000
Si       0.85354713       1.90057059      -1.28615663       0.00000000
Si      -1.95672222      -0.81332712      -1.34030296       0.00000000
Si       1.71688455      -1.80625149      -0.40473436       0.00000000
Si       2.04442758       0.59492709      -2.94001828       0.00000000
Si      -0.70100757      -2.12007834      -2.96379574       0.00000000
Si      -1.09788084       3.23130069       1.79255772       0.00000000
Si       3.48162816      -0.70403751      -1.58684306       0.00000000
Si       0.61910145      -3.47653035      -1.64692513       0.00000000
Si       0.55390887      -0.62400474       3.91202954       0.00000000
