10
Lattice="16.28999089631971 0.0 0.0 0.0 16.28999089631971 0.0 0.0 0.0 34.51007289658418" Properties=species:S:1:pos:R:3:initial_magmoms:R:1 pbc="T T T"
Si       0.44177586      -1.69754832       1.55954558       0.00000000
Si       1.65095633       1.73297907       0.12178612       0.00000000
Si      -2.17585530       1.04715378       0.59409124       0.00000000
Si       0.44811984      -1.23056289      -2.17306599       0.00000000
Si       0.41244651       3.63200115      -0.44528372       0.00000000
Si      -1.61645670      -2.59747308       2.35997265       0.00000000
Si       1.66099423      -0.87706989       3.41387636       0.00000000
Si       2.57972417      -0.08565282      -2.95654862       0.00000000
Si      -1.92125889       3.43651626       0.27815134       0.00000000
Si       1.46759121      -3.62261907       0.73264926       0.00000000
