10
Lattice="16.28999089631971 0.0 0.0 0.0 16.28999089631971 0.0 0.0 0.0 34.51007289658418" Properties=species:S:1:pos:R:3:initial_magmoms:R:1 pbc="T T T"
Si      -1.71023823      -1.51853751      -0.41539798       0.00000000
Si       0.95319373      -0.33181101       2.11118940       0.00000000
Si       1.64628436      -0.70385832      -1.51640796       0.00000000
Si      -1.11689127       2.00652075      -0.49201038       0.00000000
Si       1.84490344      -2.40933987       1.50460551       0.00000000
Si       3.04986986       1.15453746      -1.53656185       0.00000000
Si       0.42706599      -1.52433675      -3.37073874       0.00000000
Si      -0.78366303      -0.58446891       3.59936810       0.00000000
Si      -2.80561041       1.45077111      -2.03792447       0.00000000
Si       3.13695620      -2.14314498      -0.40090374       0.00000000
