10
Lattice="16.28999089631971 0.0 0.0 0.0 16.28999089631971 0.0 0.0 0.0 34.51007289658418" Properties=species:S:1:pos:R:3:initial_magmoms:R:1 pbc="T T T"
Si       2.21619097       0.00861741      -0.73423672       0.00000000
Si      -0.59369461       1.44096453      -1.76042882       0.00000000
Si      -0.19617233       0.52457058       2.28901990       0.00000000
Si      -1.05892072      -2.09653929      -0.23073448       0.00000000
Si      -0.08518041      -0.11903103      -3.44797233       0.00000000
Si       2.69286895       2.17561095      -0.00528004       0.00000000
Si      -2.42223082      -0.09184302       2.47989522       0.00000000
Si       1.23093756      -1.21200858       3.01007377       0.00000000
Si      -1.22775028      -2.02194738      -2.60074957       0.00000000
Si       1.06130002       3.09593079      -1.36694475       0.00000000
