10
Lattice="16.28999089631971 0.0 0.0 0.0 16.28999089631971 0.0 0.0 0.0 34.51007289658418" Properties=species:S:1:pos:R:3:initial_magmoms:R:1 pbc="T T T"
Si      -0.86148036      -1.72229283      -1.32227223       0.00000000
Si      -1.33247313       1.36752921       1.35863472       0.00000000
Si       1.39585752      -1.31613426       1.36508466       0.00000000
Si       0.81194247       1.89475506      -1.14880991       0.00000000
Si       1.02185541       0.50350761      -2.99110154       0.00000000
Si      -1.03272084      -0.51375402      -3.35152494       0.00000000
Si      -2.68455453       0.02756268       2.71401859       0.00000000
Si       0.02977812      -2.69009802       2.71384604       0.00000000
Si      -2.55662102       2.84050359      -0.01959828       0.00000000
Si       0.86851764      -3.51839565      -1.23749049       0.00000000
