10
Lattice="16.28999089631971 0.0 0.0 0.0 16.28999089631971 0.0 0.0 0.0 34.51007289658418" Properties=species:S:1:pos:R:3:initial_magmoms:R:1 pbc="T T T"
Si       1.09545363       1.55274651      -1.50929888       0.00000000
Si      -1.49293777      -1.05604812      -1.63546778       0.00000000
Si       2.00831265      -0.80251056       1.21775762       0.00000000
Si      -1.12978969       0.46651302       2.26261968       0.00000000
Si       3.36987972       1.28300040       1.11816150       0.00000000
Si       2.34352827       2.99729484      -0.18166113       0.00000000
Si      -1.55155001       2.92566771       1.89353425       0.00000000
Si       2.49145776       0.22358025      -2.98163745       0.00000000
Si      -0.21668632      -2.48756445      -3.00475922       0.00000000
Si       2.82610323      -2.71622718      -0.05835657       0.00000000
