10
Lattice="16.28999089631971 0.0 0.0 0.0 16.28999089631971 0.0 0.0 0.0 34.51007289658418" Properties=species:S:1:pos:R:3:initial_magmoms:R:1 pbc="T T T"
Si       2.16236555      -0.65621007       0.54663986       0.00000000
Si      -1.02581535       1.92507075       0.82689632       0.00000000
Si      -1.02075974      -1.79124840       1.28118717       0.00000000
Si      -0.59771105      -0.06709851      -2.53662982       0.00000000
Si       1.82092715      -2.98076049       0.16740846       0.00000000
Si      -1.79334234      -2.32205805      -2.00759010       0.00000000
Si      -0.43179088      -3.57699078      -0.23290861       0.00000000
Si      -3.08404791       1.02514599       1.62732340       0.00000000
Si      -3.26999826      -1.30025151       1.36042234       0.00000000
Si       2.39886377      -0.74762955       2.86364745       0.00000000
