10
Lattice="16.28999089631971 0.0 0.0 0.0 16.28999089631971 0.0 0.0 0.0 34.51007289658418" Properties=species:S:1:pos:R:3:initial_magmoms:R:1 pbc="T T T"
Si      -2.22605849      -0.61641360       0.19087532       0.00000000
Si       0.19617233      -0.52457058      -2.28901990       0.00000000
Si       1.42710988      -1.73657916       0.72105387       0.00000000
Si       0.44362394       2.04851637       1.12223369       0.00000000
Si       2.51264453       2.14493688      -0.03085202       0.00000000
Si      -0.86274839      -2.62110987      -2.51975438       0.00000000
Si      -2.53841924      -2.75061537      -0.77419941       0.00000000
Si       2.41236329      -0.51595317      -3.02325663       0.00000000
Si      -2.75738942      -1.07828397       2.60212997       0.00000000
Si      -3.75736736       1.00028745      -0.71442793       0.00000000
