10
Lattice="16.28999089631971 0.0 0.0 0.0 16.28999089631971 0.0 0.0 0.0 34.51007289658418" Properties=species:S:1:pos:R:3:initial_magmoms:R:1 pbc="T T T"
Si      -1.42328566       1.81384263      -0.47492789       0.00000000
Si       0.87965837       0.59302116       2.11274235       0.00000000
Si       2.06902059       0.09642051      -1.15308571       0.00000000
Si      -0.44362394      -2.04851637      -1.12223369       0.00000000
Si       2.38226100      -1.36868580       2.01045444       0.00000000
Si       3.00724314       2.17378647      -0.70645610       0.00000000
Si      -0.44020467       3.78185382       0.43203184       0.00000000
Si      -3.55874176       1.32514263       0.61203648       0.00000000
Si      -2.66968243      -2.66492997      -0.93135837       0.00000000
Si       1.78430397       3.22533855       1.23974055       0.00000000
