10
Lattice="16.28999089631971 0.0 0.0 0.0 16.28999089631971 0.0 0.0 0.0 34.51007289658418" Properties=species:S:1:pos:R:3:initial_magmoms:R:1 pbc="T T T"
Si       1.35725022      -1.35803214      -1.36183726       0.00000000
Si      -1.35877985       1.35910728      -1.36094000       0.00000000
Si      -1.35430662      -1.36829484       1.36960203       0.00000000
Si       1.37041254       1.36298430       1.38323351       0.00000000
Si      -2.69718857       0.07317468       2.71549562       0.00000000
Si       2.71433754      -2.71342530      -0.00296787       0.00000000
Si       2.71197549       2.71751409      -0.00434827       0.00000000
Si      -2.71938257      -2.71202436      -0.00431376       0.00000000
Si      -0.00040725      -2.71373481      -2.71908467       0.00000000
Si       2.71399545       0.00086337      -2.71887761       0.00000000
