10
Lattice="10.86 0.0 0.0 0.0 10.86 0.0 0.0 0.0 10.86" Properties=species:S:1:pos:R:3:initial_magmoms:R:1 pbc="T T T"
Si       1.21243212       1.31365818      -1.28050260       0.00000000
Si       1.35750000      -1.35750000       1.35750000       0.00000000
Si      -1.35750000       1.35750000       1.35750000       0.00000000
Si      -1.35750000      -1.35750000      -1.35750000       0.00000000
Si       2.54113140       2.61595680      -0.07456476       0.00000000
Si       0.00000000      -2.71500000       2.71500000       0.00000000
Si       0.00000000      -2.71500000      -2.71500000       0.00000000
Si      -2.71500000       2.71500000       0.00000000       0.00000000
Si      -2.71500000       0.00000000       2.71500000       0.00000000
Si       2.71500000      -2.71500000       0.00000000       0.00000000
