10
Lattice="10.86 0.0 0.0 0.0 10.86 0.0 0.0 0.0 10.86" Properties=species:S:1:pos:R:3:initial_magmoms:R:1 pbc="T T T"
Si       1.29904062       1.28166462      -1.43673456       0.00000000
Si      -1.50311088      -1.03895448      -1.62627414       0.00000000
Si      -1.72744590       1.45582644       0.98012586       0.00000000
Si      -0.38883144      -2.57577480       2.32523460       0.00000000
Si      -2.92996284       0.23826840       2.39979936       0.00000000
Si      -0.21496284       2.95326840       2.39979936       0.00000000
Si      -2.92996284      -2.47673160      -0.31520064       0.00000000
Si       2.50003716       2.95326840      -0.31520064       0.00000000
Si      -0.21496284      -2.47673160      -3.03020064       0.00000000
Si       2.50003716       0.23826840      -3.03020064       0.00000000
