10
Lattice="16.290000149 0.0 0.0 0.0 16.290000149 0.0 0.0 0.0 29.1751946751" Properties=species:S:1:pos:R:3:initial_magmoms:R:1 pbc="T T T"
Si      -1.36140418       1.36607941       1.26669943       0.00000000
Si       1.33967332       1.44432028      -1.25514605       0.00000000
Si      -1.41887530      -1.31398399      -1.31078315       0.00000000
Si       1.30072393      -1.30036555       1.45665912       0.00000000
Si       2.68387526       0.07653042      -2.60257324       0.00000000
Si      -2.77881339       0.04043178       2.50366933       0.00000000
Si      -0.03886794      -2.66170457      -2.63026050       0.00000000
Si       2.68381010      -2.65311974       0.13026724       0.00000000
Si      -0.04833243       2.78705613      -2.59991830       0.00000000
Si      -2.78106141       0.08017938      -2.61485600       0.00000000
