10
Lattice="16.290000149 0.0 0.0 0.0 16.290000149 0.0 0.0 0.0 29.1751946751" Properties=species:S:1:pos:R:3:initial_magmoms:R:1 pbc="T T T"
Si      -0.67903237       2.05510406       0.76077238       0.00000000
Si       2.05677542      -0.61528960       0.88800540       0.00000000
Si      -1.24129801      -1.78650151       0.84182107       0.00000000
Si      -0.63586387      -0.67293013      -2.14811123       0.00000000
Si      -0.67865770      -2.81915720      -1.16887500       0.00000000
H        0.71850304       2.34141711      -2.13711219       0.00000000
Si      -1.29569032       1.53903686       2.94272684       0.00000000
Si      -3.52637778       0.79042990      -0.77474729       0.00000000
Si       1.53878599      -1.86498673       2.82404214       0.00000000
Si       1.09351513       3.53628862       0.41904332       0.00000000
