10
Lattice="16.290000149 0.0 0.0 0.0 16.290000149 0.0 0.0 0.0 29.1751946751" Properties=species:S:1:pos:R:3:initial_magmoms:R:1 pbc="T T T"
Si      -1.36475992      -1.35941680      -1.32890094       0.00000000
Si      -1.43511643       1.33496551       1.28402949       0.00000000
Si       1.35586558       1.35057133      -1.36070190       0.00000000
Si       1.36127386      -1.32737437       1.37902393       0.00000000
Si      -0.08355141       2.67791312       2.59492934       0.00000000
Si      -0.09132174      -2.62528013       2.68791069       0.00000000
Si       0.00767259      -2.71568963      -2.66013590       0.00000000
Si      -2.70865235       0.02451645      -2.67002629       0.00000000
Si       2.73585666      -0.01534518      -2.67116412       0.00000000
Si       2.73310364       2.69140124      -0.02987540       0.00000000
