10
Lattice="16.290000149 0.0 0.0 0.0 16.290000149 0.0 0.0 0.0 29.1751946751" Properties=species:S:1:pos:R:3:initial_magmoms:R:1 pbc="T T T"
Si       1.13057488      -0.06235812      -1.00511463       0.00000000
H        0.67427569       0.92128096       1.61828970       0.00000000
H       -0.92377333       1.76938724       0.44877284       0.00000000
Si      -2.27963891       1.19099449       0.17292138       0.00000000
Si      -2.73325026      -1.01849968       0.78014471       0.00000000
Si       0.13839984       0.66391525       3.00376134       0.00000000
Si       1.35459496      -2.19856358      -1.91383442       0.00000000
Si       3.19207440       0.63228007      -0.10257998       0.00000000
Si       0.90477919       1.44979372      -2.84358952       0.00000000
Si      -1.66042343      -0.93118528       2.88280099       0.00000000
