10
Lattice="16.290000149 0.0 0.0 0.0 16.290000149 0.0 0.0 0.0 29.1751946751" Properties=species:S:1:pos:R:3:initial_magmoms:R:1 pbc="T T T"
Si      -1.34327341       1.35721765      -1.36971704       0.00000000
Si       1.32713165      -1.34794864      -1.39647069       0.00000000
Si       1.34677250       1.37932318       1.35200770       0.00000000
Si      -1.34333857      -1.37243251       1.36312345       0.00000000
Si       2.66409920      -2.70716996      -0.03209271       0.00000000
Si      -2.68747535       2.72500751      -0.02228985       0.00000000
Si      -2.72642475      -0.01967832       2.68951532       0.00000000
Si      -2.71013474      -2.71078634      -0.00913184       0.00000000
Si       2.71674848       0.03640815       2.70862507       0.00000000
Si       2.70707222       2.72921033      -0.00186721       0.00000000
