10
Lattice="16.290000149 0.0 0.0 0.0 16.290000149 0.0 0.0 0.0 29.1751946751" Properties=species:S:1:pos:R:3:initial_magmoms:R:1 pbc="T T T"
Si       1.14727213       0.12474882      -2.05971039       0.00000000
Si      -0.91957051      -1.83273905       1.17077139       0.00000000
Si       1.56116845       0.78058423       1.59334491       0.00000000
Si      -1.93337867       1.49169160      -0.31287479       0.00000000
Si      -1.95022253      -0.34479414       2.64067605       0.00000000
H       -2.83522566       0.50560902       1.75275817       0.00000000
H        1.84588508      -2.84459241      -0.14660535       0.00000000
Si      -0.05178591       0.95430079       3.27185221       0.00000000
Si       2.39746448       2.70899607       0.57343845       0.00000000
Si       2.67387320       1.97009633      -1.63264389       0.00000000
