10
Lattice="16.290000149 0.0 0.0 0.0 16.290000149 0.0 0.0 0.0 29.1751946751" Properties=species:S:1:pos:R:3:initial_magmoms:R:1 pbc="T T T"
Si       0.43772859      -0.24783606       2.28374788       0.00000000
Si      -1.71603749       1.63282817       0.10853172       0.00000000
Si      -0.04986369      -2.29408814      -0.66735340       0.00000000
Si       1.86865850       0.89567308      -1.27839868       0.00000000
H       -0.91497673       0.16096149      -2.54048843       0.00000000
Si       2.15357060      -2.67494834       0.13735682       0.00000000
Si      -0.32485518       3.37123182      -0.80984505       0.00000000
Si       2.07073595      -1.98314462       2.36755830       0.00000000
Si       3.45958878       1.71035228       0.28547928       0.00000000
Si      -3.77305725       0.62542198      -0.61040342       0.00000000
