10
Lattice="16.290000149 0.0 0.0 0.0 16.290000149 0.0 0.0 0.0 29.1751946751" Properties=species:S:1:pos:R:3:initial_magmoms:R:1 pbc="T T T"
Si       1.25737624       1.36936999      -1.42551460       0.00000000
Si       1.37499004      -1.26400627       1.41760229       0.00000000
Si      -0.80891254      -1.85948723      -1.18175468       0.00000000
Si      -1.42586371       1.37586970       1.29447421       0.00000000
Si      -2.68302818      -2.66167199       0.01436295       0.00000000
Si      -0.05207913      -2.65471616       2.69883680       0.00000000
Si       2.66193263      -2.71368596       0.09027389       0.00000000
Si       2.64665261       2.74776465      -0.08351691       0.00000000
Si      -0.08257401       2.74558179       2.65746637       0.00000000
Si      -0.19372068       2.78700726      -2.64252867       0.00000000
