10
Lattice="16.290000149 0.0 0.0 0.0 16.290000149 0.0 0.0 0.0 29.1751946751" Properties=species:S:1:pos:R:3:initial_magmoms:R:1 pbc="T T T"
Si      -1.48975309      -1.35913987       1.17220097       0.00000000
Si       1.30919473       1.32900337       1.40738222       0.00000000
Si       1.40336722      -1.35008263      -1.30541491       0.00000000
Si      -1.33336909       1.35008263      -1.38331268       0.00000000
H       -0.81638965      -2.17614854       2.25430894       0.00000000
Si       0.00638568      -2.72253143      -2.62051599       0.00000000
Si       2.69454521       2.68842017       0.07474685       0.00000000
Si      -2.92236087      -0.13431105       2.45792263       0.00000000
Si       2.74654290      -0.00412137      -2.67586133       0.00000000
Si       2.75424807      -2.67182066       0.11109914       0.00000000
