10
Lattice="16.290000149 0.0 0.0 0.0 16.290000149 0.0 0.0 0.0 29.1751946751" Properties=species:S:1:pos:R:3:initial_magmoms:R:1 pbc="T T T"
H       -0.17811486       1.38754312       0.61057847       0.00000000
Si       0.83416204      -1.24397609       1.71366341       0.00000000
Si       1.89431525       0.01530608      -1.33987082       0.00000000
Si      -1.90047287      -0.54809986      -1.28601341       0.00000000
Si       0.64275454       1.12219530      -2.94567353       0.00000000
Si      -2.62904312       1.64215582      -0.88438768       0.00000000
Si      -0.69043537       2.66919146      -1.78791428       0.00000000
Si       1.87354550       0.60906682       2.66717879       0.00000000
Si       2.33069177      -2.27327604      -1.03624456       0.00000000
Si      -0.99774622      -2.26625505       2.65632562       0.00000000
