10
Lattice="16.290000149 0.0 0.0 0.0 16.290000149 0.0 0.0 0.0 29.1751946751" Properties=species:S:1:pos:R:3:initial_magmoms:R:1 pbc="T T T"
Si       1.35608061      -1.40926420       1.31203768       0.00000000
Si      -1.46246962       1.27946548       1.34226318       0.00000000
Si      -1.11013745      -1.70872328      -1.24114196       0.00000000
Si       1.18705557       1.69148846      -1.19743752       0.00000000
Si       2.36477371      -2.64860741      -0.53025916       0.00000000
Si      -2.78214958      -2.49536738       0.20072534       0.00000000
Si       2.52853708       0.05862771       2.76099455       0.00000000
Si      -2.86438150       2.45076536      -0.11813036       0.00000000
Si      -0.13296387      -2.60964173       2.74546167       0.00000000
Si       0.30775394      -3.65601360      -1.24919431       0.00000000
