10
Lattice="16.290000149 0.0 0.0 0.0 16.290000149 0.0 0.0 0.0 29.1751946751" Properties=species:S:1:pos:R:3:initial_magmoms:R:1 pbc="T T T"
Si       1.36285399      -1.33999912       1.36367777       0.00000000
Si       1.35553978       1.37077093      -1.34593926       0.00000000
Si      -1.35529543       1.35321031       1.36528241       0.00000000
Si      -1.33547050      -1.40424688      -1.33835371       0.00000000
Si       2.70689303      -2.67076181      -0.02284418       0.00000000
Si      -2.76868101      -0.08477316      -2.62150794       0.00000000
Si       0.01132155      -2.73101852       2.69144088       0.00000000
Si      -2.72460026       2.70089831       0.02398201       0.00000000
Si       0.00944820       2.71534754      -2.71171764       0.00000000
Si       2.71314839       2.71860554       0.02167717       0.00000000
