10
Lattice="16.290000149 0.0 0.0 0.0 16.290000149 0.0 0.0 0.0 29.1751946751" Properties=species:S:1:pos:R:3:initial_magmoms:R:1 pbc="T T T"
Si       1.38092449      -1.45396722       1.15352885       0.00000000
Si      -1.22936581      -1.36069329      -1.44714801       0.00000000
Si       1.40853604       1.29620834      -1.39072318       0.00000000
Si      -1.21994492       1.27410281       1.61362167       0.00000000
H        1.62279841       1.51521111       2.10881225       0.00000000
Si       2.22916109       0.20591375       2.55058304       0.00000000
Si      -2.49826212       2.59821919       0.08767146       0.00000000
Si      -2.53664136      -2.70078754      -0.07976498       0.00000000
Si       0.06677597       2.63063629      -2.77380246       0.00000000
Si      -2.69866170      -0.07290590      -2.72542999       0.00000000
