10
Lattice="16.290000149 0.0 0.0 0.0 16.290000149 0.0 0.0 0.0 29.1751946751" Properties=species:S:1:pos:R:3:initial_magmoms:R:1 pbc="T T T"
H       -0.59865751      -0.08814519      -1.40125543       0.00000000
Si      -1.71517412       0.44507538       1.52487072       0.00000000
Si       0.47833956      -2.03048336       1.05631710       0.00000000
H        1.51371568      -0.85263490      -1.69688767       0.00000000
Si       1.89718229       1.50011353       0.32022694       0.00000000
Si       0.79689052      -0.92981692      -3.02500088       0.00000000
Si      -2.56210751       2.28827261       0.39803718       0.00000000
Si      -0.33739848       1.47250198       3.15768967       0.00000000
Si       2.06926985      -1.21580416       2.62019506       0.00000000
Si       0.92662408       2.95577166       1.83115192       0.00000000
