10
Lattice="16.290000149 0.0 0.0 0.0 16.290000149 0.0 0.0 0.0 29.1751946751" Properties=species:S:1:pos:R:3:initial_magmoms:R:1 pbc="T T T"
Si       1.37723806       1.34082991       1.33082651       0.00000000
Si       1.37999107      -1.36591651      -1.31046222       0.00000000
Si      -1.35586558      -1.35057133       1.36070190       0.00000000
Si      -1.35008263       1.37722177      -1.34132958       0.00000000
Si      -0.05613534       2.66204666       2.61427249       0.00000000
Si       0.00201996      -2.70138701      -2.65511777       0.00000000
Si      -2.71500545       0.02101410      -2.68726883       0.00000000
Si       2.73670374      -0.01032786      -2.66748805       0.00000000
Si       0.00540828      -2.67794570       2.73972583       0.00000000
Si       0.01089801       2.73927756      -2.68496399       0.00000000
