10
Lattice="16.290000149 0.0 0.0 0.0 16.290000149 0.0 0.0 0.0 29.1751946751" Properties=species:S:1:pos:R:3:initial_magmoms:R:1 pbc="T T T"
Si      -1.14727213      -0.12474882       2.05971039       0.00000000
Si      -1.52692687       0.99699688      -1.50608190       0.00000000
Si       0.99732268      -1.76715551      -1.26859581       0.00000000
Si       1.52660107       1.84534751       0.42706650       0.00000000
H       -2.05684058      -2.79309972      -0.90338073       0.00000000
H        0.69861295      -2.96934123       1.91310504       0.00000000
Si       2.29987109      -0.46713204      -2.76224908       0.00000000
Si      -2.56266137       2.61663992      -0.18920114       0.00000000
Si      -0.23366376       2.43367536      -2.78535584       0.00000000
Si       0.41389632       0.65583541       3.65305530       0.00000000
