10
Lattice="16.290000149 0.0 0.0 0.0 16.290000149 0.0 0.0 0.0 29.1751946751" Properties=species:S:1:pos:R:3:initial_magmoms:R:1 pbc="T T T"
Si       1.38724012       1.35920503      -1.30430625       0.00000000
Si       1.38204361      -1.34563546       1.33631144       0.00000000
Si      -1.31795875       1.37034739       1.38865174       0.00000000
Si      -1.33068124      -1.34545627      -1.41455931       0.00000000
Si       0.01672983       2.71996087      -2.61765682       0.00000000
Si       0.01324377      -2.68916951       2.67909978       0.00000000
Si      -2.67732994      -2.69316056      -0.04624268       0.00000000
Si      -2.66397540       2.73175320       0.03404745       0.00000000
Si       2.71120988       0.00760743      -2.68890264       0.00000000
Si      -2.69339840       0.02204037       2.73911315       0.00000000
