10
Lattice="16.290000149 0.0 0.0 0.0 16.290000149 0.0 0.0 0.0 29.1751946751" Properties=species:S:1:pos:R:3:initial_magmoms:R:1 pbc="T T T"
Si      -1.29326311      -1.43667848       1.27927394       0.00000000
Si       1.30536658      -1.40768228      -1.33905391       0.00000000
Si      -1.43544223       1.61717527      -0.94107508       0.00000000
Si       1.18017793       1.15183838       1.69828808       0.00000000
Si      -0.82096714       2.03983561       2.65637230       0.00000000
Si      -2.32899761       0.18296456       2.59615470       0.00000000
Si       2.62206302       2.56720808       0.35433274       0.00000000
Si      -0.09663228       2.64399914      -2.57217269       0.00000000
Si       0.23366376      -2.43367536       2.78535584       0.00000000
Si       1.76026484      -0.58832785       3.21242234       0.00000000
