10
Lattice="16.290000149 0.0 0.0 0.0 16.290000149 0.0 0.0 0.0 29.1751946751" Properties=species:S:1:pos:R:3:initial_magmoms:R:1 pbc="T T T"
Si      -0.53587584      -0.25736571       1.38547164       0.00000000
H       -0.67427569      -0.92128096      -1.61828970       0.00000000
H       -1.59804901       0.84810628      -1.16951685       0.00000000
H        1.26780184       1.75850552       0.42665805       0.00000000
Si       0.45629919      -0.98363908      -2.62340433       0.00000000
Si       2.18026991       1.83091457      -0.78679665       0.00000000
Si       2.51779871      -0.28900089      -1.72086968       0.00000000
Si       1.15403248      -1.18496719       2.69762603       0.00000000
Si      -2.33469911      -1.85246624       1.26451129       0.00000000
Si      -1.38510613       1.61764588       2.50060594       0.00000000
