10
Lattice="16.290000149 0.0 0.0 0.0 16.290000149 0.0 0.0 0.0 29.1751946751" Properties=species:S:1:pos:R:3:initial_magmoms:R:1 pbc="T T T"
Si       1.91819639      -1.05849815       0.77886100       0.00000000
Si      -1.25452549      -1.31720290      -1.47130507       0.00000000
Si       1.16242183       1.44058010      -1.50249335       0.00000000
Si      -0.97231753       0.40486189       2.15222494       0.00000000
H       -1.87623335       1.97033090       0.64891468       0.00000000
Si       0.05036868       2.55572835       2.54530233       0.00000000
Si      -2.59954193      -2.60867411      -0.10053772       0.00000000
Si       3.66008610      -0.73974194      -0.71960618       0.00000000
Si       2.68123628       0.12549653      -2.70468642       0.00000000
Si       2.59919984       2.77285776      -0.29224793       0.00000000
