10
Lattice="16.290000149 0.0 0.0 0.0 16.290000149 0.0 0.0 0.0 29.1751946751" Properties=species:S:1:pos:R:3:initial_magmoms:R:1 pbc="T T T"
Si      -1.35608061       1.40926420      -1.31203768       0.00000000
Si       1.17245647       1.46789191       1.44895687       0.00000000
Si      -1.48904448      -1.20037753       1.43342399       0.00000000
Si       1.00869310      -1.23934321      -1.84229684       0.00000000
Si      -2.46621806      -0.29945907      -2.55317964       0.00000000
Si      -1.04832667      -2.24674940      -2.56123199       0.00000000
Si       2.39987540       0.49906044      -2.76067362       0.00000000
Si       2.54550800       0.11534949       2.80914821       0.00000000
Si      -0.13053177      -2.54032778       2.81366453       0.00000000
Si       2.47021562       2.95186206       0.17290767       0.00000000
