10
Lattice="16.290000149 0.0 0.0 0.0 16.290000149 0.0 0.0 0.0 29.1751946751" Properties=species:S:1:pos:R:3:initial_magmoms:R:1 pbc="T T T"
Si      -0.73345726       1.30629511      -1.81498886       0.00000000
Si       2.00114507      -0.88799723      -0.95808422       0.00000000
Si      -1.50803047      -1.85687105      -0.06021760       0.00000000
Si      -0.61411672       1.07220781       2.05300010       0.00000000
H        2.48249828       1.38609982       1.08333333       0.00000000
H        1.26084601      -0.77353554       2.77855802       0.00000000
Si      -2.47129076       2.29470716      -0.52917968       0.00000000
Si       0.82096714      -2.03983561      -2.65637230       0.00000000
Si      -0.61447510      -0.42266034      -3.59744738       0.00000000
Si       2.58123197      -2.62816346       0.55605004       0.00000000
