10
Lattice="16.290000149 0.0 0.0 0.0 16.290000149 0.0 0.0 0.0 29.1751946751" Properties=species:S:1:pos:R:3:initial_magmoms:R:1 pbc="T T T"
Si       1.37451763      -1.34612905       1.33639897       0.00000000
Si       1.36519975       1.34755280      -1.34938193       0.00000000
Si      -1.34947990      -1.37014051      -1.35113244       0.00000000
Si      -1.35070165       1.34929583       1.37280961       0.00000000
Si       0.01966203      -2.70075659       2.67087237       0.00000000
Si       0.00280188       2.71322496      -2.68528492       0.00000000
Si      -2.73188189      -0.01074000      -2.67314804       0.00000000
Si      -2.71829603       2.69429598       0.00846081       0.00000000
Si       2.72507267       2.69149410       0.01356647       0.00000000
Si       2.72784197      -0.01442805      -2.69549624       0.00000000
