10
Lattice="16.290000149 0.0 0.0 0.0 16.290000149 0.0 0.0 0.0 29.1751946751" Properties=species:S:1:pos:R:3:initial_magmoms:R:1 pbc="T T T"
Si       1.33729987       1.34934958      -1.36986292       0.00000000
Si      -1.37833787       1.39534994       1.29908389       0.00000000
Si       1.34674807      -1.35350353       1.38506319       0.00000000
Si      -1.37988683      -1.36140418      -1.35512944       0.00000000
Si      -0.11689215      -2.73483039       2.60175634       0.00000000
Si      -2.68561341       0.05525568       2.66646692       0.00000000
Si       2.68534625      -2.68522733      -0.02217315       0.00000000
Si       2.67899315       2.69549003       0.02074356       0.00000000
Si      -0.06846198       2.68579260      -2.70442385       0.00000000
Si       2.68837619      -0.01278765      -2.73033142       0.00000000
