10
Lattice="16.290000149 0.0 0.0 0.0 16.290000149 0.0 0.0 0.0 29.1751946751" Properties=species:S:1:pos:R:3:initial_magmoms:R:1 pbc="T T T"
Si      -1.26227464       1.42612435       1.32888606       0.00000000
Si       1.63426657      -1.18413640       1.21166918       0.00000000
Si       0.68506455       1.76648762      -1.50109294       0.00000000
Si      -1.33333163      -1.97829020      -0.48868451       0.00000000
Si       0.29808908      -2.59069321       2.56416118       0.00000000
Si       0.17395928       0.85455712      -3.59175822       0.00000000
Si      -2.58466428       0.10049301       2.69246785       0.00000000
Si      -0.40094089      -2.79269735      -2.48403442       0.00000000
Si       0.24434674       2.81285949       2.49356304       0.00000000
Si      -2.40483897       2.92713384      -0.05117329       0.00000000
