10
Lattice="16.290000149 0.0 0.0 0.0 16.290000149 0.0 0.0 0.0 29.1751946751" Properties=species:S:1:pos:R:3:initial_magmoms:R:1 pbc="T T T"
Si       1.83190826       1.02227896      -0.94266221       0.00000000
Si       1.40636458      -1.36371736       1.25424745       0.00000000
Si      -1.32036967       1.48897549       1.20817399       0.00000000
Si      -1.30435660      -1.18384318      -1.55317154       0.00000000
Si       0.99774622       2.26625505      -2.65632562       0.00000000
Si      -2.67022424       0.09391185       2.51868289       0.00000000
Si      -2.62585028      -2.58704750      -0.21073827       0.00000000
Si       0.05053158      -2.70427034       2.56933102       0.00000000
Si       2.74427859      -2.51783129      -0.30257886       0.00000000
Si       2.82866079       0.09585036       2.47912132       0.00000000
