10
Lattice="16.290000149 0.0 0.0 0.0 16.290000149 0.0 0.0 0.0 29.1751946751" Properties=species:S:1:pos:R:3:initial_magmoms:R:1 pbc="T T T"
Si       1.41887530       1.31398399       1.31078315       0.00000000
Si       1.38000736      -1.34772058      -1.31947735       0.00000000
Si      -1.35014779      -1.35795070       1.35154089       0.00000000
Si      -1.36218610       1.39416337      -1.30407285       0.00000000
Si       0.05747112       2.68006340       2.57748257       0.00000000
Si       0.00931788      -2.70910847      -2.64677366       0.00000000
Si       2.73153981       0.04329882      -2.64724046       0.00000000
Si      -2.71648784       0.04049694      -2.66424960       0.00000000
Si       0.01339038       2.73650826      -2.64563583       0.00000000
Si       2.73588924      -2.67748958       0.06879511       0.00000000
