10
Lattice="16.290000149 0.0 0.0 0.0 16.290000149 0.0 0.0 0.0 29.1751946751" Properties=species:S:1:pos:R:3:initial_magmoms:R:1 pbc="T T T"
Si       1.34609158      -1.34457661       1.36577839       0.00000000
Si      -1.35408997       1.32918256       1.40099285       0.00000000
Si      -1.42229620      -1.45956772      -1.22487387       0.00000000
Si       1.46043109       1.43668092      -1.21473841       0.00000000
Si      -0.99675253       0.92642860      -3.42178353       0.00000000
Si       0.04263093       2.77947150      -2.46826815       0.00000000
Si      -2.82866079      -0.09585036      -2.47912132       0.00000000
Si       2.68986998      -2.64756485      -0.05800029       0.00000000
Si      -0.08438220      -2.61368165      -2.78170018       0.00000000
Si      -0.00944820      -2.71534754       2.71171764       0.00000000
