10
Lattice="16.290000149 0.0 0.0 0.0 16.290000149 0.0 0.0 0.0 29.1751946751" Properties=species:S:1:pos:R:3:initial_magmoms:R:1 pbc="T T T"
Si      -1.36616086      -1.35039214       1.35105075       0.00000000
Si       1.30517110       1.29474550       1.47548296       0.00000000
Si      -1.37121076       1.41196834      -1.30458633       0.00000000
Si       1.36306576      -1.34820928      -1.38993253       0.00000000
Si       2.66100410       2.63529848       0.16039939       0.00000000
Si       2.71208954      -2.71011845      -0.01335349       0.00000000
Si      -0.01492164      -2.66927942       2.75889977       0.00000000
Si      -2.72938952       0.02329470       2.69990753       0.00000000
Si      -2.70945056      -2.72010422      -0.01194141       0.00000000
Si      -2.78474295       0.11640834      -2.64818195       0.00000000
