10
Lattice="16.290000149 0.0 0.0 0.0 16.290000149 0.0 0.0 0.0 29.1751946751" Properties=species:S:1:pos:R:3:initial_magmoms:R:1 pbc="T T T"
Si       1.34501644       1.29147121      -1.37076735       0.00000000
Si      -1.52769250       1.26398998       1.21360057       0.00000000
Si       1.03374712      -0.82381789       1.95386279       0.00000000
Si      -1.41289687      -1.39158955      -1.30109698       0.00000000
Si      -0.79345333      -2.11815614       2.59215770       0.00000000
Si      -2.44724672      -0.46687140       2.49526687       0.00000000
Si       2.59954193       2.60867411       0.10053772       0.00000000
Si      -0.08065179       2.65740401      -2.66541661       0.00000000
Si       2.70992297      -0.07734492      -2.71524784       0.00000000
Si      -0.07429869      -2.72331335      -2.70833332       0.00000000
