10
Lattice="16.290000149 0.0 0.0 0.0 16.290000149 0.0 0.0 0.0 29.1751946751" Properties=species:S:1:pos:R:3:initial_magmoms:R:1 pbc="T T T"
Si      -2.05677542       0.61528960      -0.88800540       0.00000000
Si       1.03573450      -1.61964304      -1.31688076       0.00000000
Si      -0.51798942      -1.24969714       1.93603674       0.00000000
Si       1.50803047       1.85687105       0.06021760       0.00000000
Si       2.32899761      -0.18296456      -2.59615470       0.00000000
Si      -3.29807343      -1.17121191      -0.04618433       0.00000000
Si       2.56266137      -2.61663992       0.18920114       0.00000000
Si       0.77457322       3.16316616      -1.75477126       0.00000000
Si      -2.13526064       0.28174044       3.00883783       0.00000000
Si       0.89391376       2.92907886       2.11321770       0.00000000
