10
Lattice="16.290000149 0.0 0.0 0.0 16.290000149 0.0 0.0 0.0 29.1751946751" Properties=species:S:1:pos:R:3:initial_magmoms:R:1 pbc="T T T"
Si       2.24793857      -0.50187861       0.27121261       0.00000000
Si      -1.57367917      -1.68432086      -0.44891872       0.00000000
Si      -0.72943363       0.63798157       2.17699205       0.00000000
Si      -0.08273691       1.46088721      -1.92626305       0.00000000
H        0.26797050      -1.10247952      -2.82728059       0.00000000
Si      -2.82523989      -0.57743164      -2.05472144       0.00000000
Si      -1.30629511       3.31737708      -1.26366521       0.00000000
Si       1.31194774      -2.21820769      -2.84370622       0.00000000
Si       3.18032931      -1.31628577      -1.72413730       0.00000000
H       -0.01053963       3.85991554      -0.33169279       0.00000000
