10
Lattice="16.290000149 0.0 0.0 0.0 16.290000149 0.0 0.0 0.0 29.1751946751" Properties=species:S:1:pos:R:3:initial_magmoms:R:1 pbc="T T T"
Si      -0.27379581       0.82088569       2.15415050       0.00000000
Si       1.65379340      -1.65128474       0.09689082       0.00000000
Si      -1.76984336      -1.00908406      -1.15279947       0.00000000
Si       0.91955422       1.73086139      -1.28166630       0.00000000
Si      -0.42929037      -2.30604500      -2.57967071       0.00000000
Si      -2.54311337       1.30339549       2.03651611       0.00000000
Si       2.44724672       0.46687140      -2.49526687       0.00000000
Si       3.48099384      -0.35694648      -0.54140409       0.00000000
Si       1.01183707       2.80841720       2.27035530       0.00000000
Si       2.11691810      -2.07541118       2.30895408       0.00000000
