10
Lattice="16.290000149 0.0 0.0 0.0 16.290000149 0.0 0.0 0.0 29.1751946751" Properties=species:S:1:pos:R:3:initial_magmoms:R:1 pbc="T T T"
Si      -1.35645202      -1.34939845      -1.35442924       0.00000000
Si      -1.34403904       1.33076269       1.38652195       0.00000000
Si       1.34068330       1.35337321      -1.38529659       0.00000000
Si       1.34526079      -1.38047977       1.35483769       0.00000000
Si       0.06867864      -2.70971120      -2.62433794       0.00000000
Si      -2.70689303       2.67076181       0.02284418       0.00000000
Si       2.70513046       2.68340285      -0.00665194       0.00000000
Si      -2.69557148      -0.06025671       2.71428506       0.00000000
Si       2.69536297      -0.03495834      -2.71516032       0.00000000
Si       2.69757678      -0.02718801       2.71521867       0.00000000
