10
Lattice="16.290000149 0.0 0.0 0.0 16.290000149 0.0 0.0 0.0 29.1751946751" Properties=species:S:1:pos:R:3:initial_magmoms:R:1 pbc="T T T"
Si      -1.40443585       1.31802391       1.31463427       0.00000000
Si       1.36875749      -1.24012513       1.44507657       0.00000000
Si       1.33148597       1.39649284      -1.34392617       0.00000000
Si      -1.39218577      -1.37797111      -1.30812820       0.00000000
Si       2.56788069      -2.64072305      -0.03311385       0.00000000
Si      -0.11389317       2.72891711       2.62970617       0.00000000
Si       2.63020623       0.03934035      -2.76224908       0.00000000
Si      -0.00074445      -2.67165776       2.74491902       0.00000000
Si      -2.72860109      -0.01234782      -2.68942780       0.00000000
Si      -2.72703725       2.69208542      -0.02164799       0.00000000
