10
Lattice="16.290000149 0.0 0.0 0.0 16.290000149 0.0 0.0 0.0 29.1751946751" Properties=species:S:1:pos:R:3:initial_magmoms:R:1 pbc="T T T"
Si       1.32036967      -1.48897549      -1.20817399       0.00000000
Si       1.36044307       1.28208711       1.41057982       0.00000000
Si      -1.34985457      -1.39506364       1.31050890       0.00000000
Si      -1.38269521       1.32426518      -1.36599428       0.00000000
Si       2.69400764       2.62224588       0.08240534       0.00000000
Si      -2.69794982       2.64734877       0.03507150       0.00000000
Si      -2.67382433      -0.04346604       2.69510529       0.00000000
Si       0.03051117       2.70196914       2.69653487       0.00000000
Si       0.03484431      -2.75184146       2.64997126       0.00000000
Si      -2.68701923      -2.71968500      -0.09427381       0.00000000
