10
Lattice="16.290000149 0.0 0.0 0.0 16.290000149 0.0 0.0 0.0 29.1751946751" Properties=species:S:1:pos:R:3:initial_magmoms:R:1 pbc="T T T"
Si       1.31593879      -1.26355015       1.47170769       0.00000000
Si      -0.85786399      -1.93663667      -1.04038161       0.00000000
Si      -1.43122312       1.37223703       1.28381651       0.00000000
Si       1.21699333       1.43555626      -1.44062443       0.00000000
Si       2.57367341      -2.66584223       0.10840919       0.00000000
Si       2.61353504       2.75690334      -0.07729093       0.00000000
Si      -0.05862771       2.77837356       2.59547200       0.00000000
Si       2.75349873       0.16079859      -2.63523195       0.00000000
Si      -0.09506844      -2.66795993       2.72891934       0.00000000
Si      -1.51589854      -1.51415551      -3.17053843       0.00000000
