10
Lattice="16.290000149 0.0 0.0 0.0 16.290000149 0.0 0.0 0.0 29.1751946751" Properties=species:S:1:pos:R:3:initial_magmoms:R:1 pbc="T T T"
Si       0.99233794      -1.85956868       0.88319149       0.00000000
Si      -1.48864537      -1.01260270      -1.46935033       0.00000000
Si      -1.60689448       0.78848488       1.52770072       0.00000000
Si       1.65718172       1.53018487      -0.72984667       0.00000000
H        0.90552853       2.08647209       1.76215258       0.00000000
H        0.24765687       2.49755024       1.72562524       0.00000000
H       -0.89006932       0.86566690       2.85581393       0.00000000
Si      -1.95087413       2.73919610       0.15410338       0.00000000
Si       0.17107758       3.33169599      -0.84847301       0.00000000
H        0.61732585      -3.05444019      -1.67296401       0.00000000
