10
Lattice="16.290000149 0.0 0.0 0.0 16.290000149 0.0 0.0 0.0 29.1751946751" Properties=species:S:1:pos:R:3:initial_magmoms:R:1 pbc="T T T"
Si       1.32993190      -1.41988202      -1.28595506       0.00000000
Si      -1.34877943      -1.37381716       1.33671989       0.00000000
Si       1.38590434       1.35014779       1.32458301       0.00000000
Si      -1.30044700       1.34934958      -1.41843961       0.00000000
Si       2.66349647      -0.07972326      -2.61412954       0.00000000
Si       0.01501938       2.69609276       2.66264497       0.00000000
Si      -2.67825521       2.69812901      -0.06777398       0.00000000
Si      -2.70861977      -0.01646919       2.67603638       0.00000000
Si      -2.72846099      -0.05462037      -2.66146337       0.00000000
Si       0.03362256      -2.73321768       2.65873549       0.00000000
