10
Lattice="16.290000149 0.0 0.0 0.0 16.290000149 0.0 0.0 0.0 29.1751946751" Properties=species:S:1:pos:R:3:initial_magmoms:R:1 pbc="T T T"
Si       1.37844352       1.36402687       1.30483141       0.00000000
Si      -1.31756779       1.39129633      -1.34121287       0.00000000
Si       1.32713002      -1.35892810      -1.36609932       0.00000000
Si      -1.37042884      -1.35850456       1.33759515       0.00000000
Si      -2.62971101       0.03140712      -2.68666199       0.00000000
Si      -0.00663003       2.67849956       2.66328682       0.00000000
Si       2.73813726       0.04548168      -2.62331097       0.00000000
Si       2.70778898      -0.00263898       2.68058771       0.00000000
Si      -0.09283671      -2.78837562      -2.60111740       0.00000000
Si      -0.00803097      -2.72417672       2.67349814       0.00000000
