10
Lattice="16.290000149 0.0 0.0 0.0 16.290000149 0.0 0.0 0.0 29.1751946751" Properties=species:S:1:pos:R:3:initial_magmoms:R:1 pbc="T T T"
Si      -1.35984034       1.35734797       1.33931649       0.00000000
Si       1.34877943       1.37381716      -1.33671989       0.00000000
Si       1.38240199      -1.35940051       1.32201560       0.00000000
Si      -1.35555607      -1.37161801      -1.33814948       0.00000000
Si       2.67871133      -0.04606486      -2.62267495       0.00000000
Si       0.00558747      -2.71432127       2.65473849       0.00000000
Si      -2.72606637      -0.01086217      -2.65150004       0.00000000
Si       0.01358586       2.70503597       2.68160884       0.00000000
Si       2.73188189       0.01074000       2.67314804       0.00000000
Si      -2.70418889       0.00222521       2.70480312       0.00000000
