10
Lattice="16.290000149 0.0 0.0 0.0 16.290000149 0.0 0.0 0.0 29.1751946751" Properties=species:S:1:pos:R:3:initial_magmoms:R:1 pbc="T T T"
Si       1.35467967      -1.38833155      -1.32986372       0.00000000
Si       1.36444715       1.33002964       1.37864465       0.00000000
Si      -1.34068330      -1.35337321       1.38529659       0.00000000
Si      -1.34825815       1.38517129      -1.36157716       0.00000000
Si      -2.69203655       2.68815953       0.06220151       0.00000000
Si       2.71109585       2.67773393       0.01032802       0.00000000
Si      -2.69713532      -2.70277166       0.03086736       0.00000000
Si       2.70040961      -0.05906754      -2.71099993       0.00000000
Si      -2.69537600       0.05256783      -2.75005969       0.00000000
Si       0.03410222       2.67880907       2.77009721       0.00000000
