10
Lattice="16.290000149 0.0 0.0 0.0 16.290000149 0.0 0.0 0.0 29.1751946751" Properties=species:S:1:pos:R:3:initial_magmoms:R:1 pbc="T T T"
Si      -1.32467023      -1.33603511      -1.33777020       0.00000000
Si       1.31703332      -1.43481833       1.27586044       0.00000000
Si      -1.44264241       1.33242916       1.28204558       0.00000000
Si       1.29954486       1.28974936      -1.47205487       0.00000000
Si       2.63082851      -0.05050877       2.63947986       0.00000000
Si      -0.07408692       2.68094795       2.62025341       0.00000000
Si      -2.74247039       0.00675546      -2.59129995       0.00000000
Si       2.66151072       2.68575350      -0.15433678       0.00000000
Si      -0.15141555       2.67422018      -2.69706586       0.00000000
Si      -0.08140113      -2.76945804       2.61036302       0.00000000
