10
Lattice="16.290000149 0.0 0.0 0.0 16.290000149 0.0 0.0 0.0 29.1751946751" Properties=species:S:1:pos:R:3:initial_magmoms:R:1 pbc="T T T"
Si      -1.36319608      -1.34967538       1.35025718       0.00000000
Si      -1.38921121       1.34830051      -1.33336475       0.00000000
Si       1.32056515      -1.36824598      -1.38342938       0.00000000
Si       1.36067113       1.34301766       1.37774022       0.00000000
Si      -0.06351471       2.70459614       2.67822452       0.00000000
Si       0.01009980      -2.70197345       2.69517531       0.00000000
Si       2.69003288      -2.71021619      -0.03042973       0.00000000
Si       2.69615792       2.70611111       0.00778978       0.00000000
Si      -0.04486266       2.70342326      -2.69885138       0.00000000
Si       2.69737967      -0.01332522      -2.71615227       0.00000000
