10
Lattice="16.290000149 0.0 0.0 0.0 16.290000149 0.0 0.0 0.0 29.1751946751" Properties=species:S:1:pos:R:3:initial_magmoms:R:1 pbc="T T T"
Si       0.52436533      -0.68854573       2.22040737       0.00000000
Si       1.15927134       2.04310811      -0.62446587       0.00000000
Si      -2.01456803       1.35918874       0.06412708       0.00000000
Si      -1.21676527      -1.59953140      -1.37753599       0.00000000
Si       2.20608956      -1.43066926      -1.05433319       0.00000000
H       -1.03048912       1.05319738      -2.45500511       0.00000000
H       -2.65686644      -1.29973024      -0.93847849       0.00000000
H       -1.56370969       2.63946872      -0.61019920       0.00000000
Si      -0.00957852       2.18132876      -2.64651108       0.00000000
H        3.40478922      -1.06572439      -0.16956623       0.00000000
