10
Lattice="16.290000149 0.0 0.0 0.0 16.290000149 0.0 0.0 0.0 29.1751946751" Properties=species:S:1:pos:R:3:initial_magmoms:R:1 pbc="T T T"
Si      -1.34609158       1.34457661      -1.36577839       0.00000000
Si      -1.35553978      -1.37077093       1.34593926       0.00000000
Si       1.35760861       1.34783461       1.36761643       0.00000000
Si       1.34377840      -1.30298824      -1.42377868       0.00000000
Si      -2.76838779      -0.11499111      -2.59065226       0.00000000
Si       0.11433951       2.78125754      -2.58051679       0.00000000
Si      -2.70018155       2.67375917       0.03521446       0.00000000
Si       2.69203655      -2.68815953      -0.06220151       0.00000000
Si       0.00731421      -2.71077005       2.70961703       0.00000000
Si      -2.71083521      -0.01756062       2.71122167       0.00000000
