10
Lattice="16.290000149 0.0 0.0 0.0 16.290000149 0.0 0.0 0.0 29.1751946751" Properties=species:S:1:pos:R:3:initial_magmoms:R:1 pbc="T T T"
H        1.99361909      -0.07356564      -1.00534803       0.00000000
Si       1.02011239      -1.33519357       1.62301608       0.00000000
Si       0.75986335       1.87401791      -1.27976991       0.00000000
Si      -0.76362634      -2.04024107      -1.01911873       0.00000000
Si      -1.07031817       1.11133639       1.86724163       0.00000000
H       -1.22456818       1.25923330      -2.36937591       0.00000000
H       -3.02016603       0.03842811      -1.27571456       0.00000000
H       -1.88243984       1.67031146      -2.40590325       0.00000000
H        2.31586787      -0.79265512       2.55498850       0.00000000
Si      -1.01858113       3.42106293      -0.65148210       0.00000000
