10
Lattice="16.290000149 0.0 0.0 0.0 16.290000149 0.0 0.0 0.0 29.1751946751" Properties=species:S:1:pos:R:3:initial_magmoms:R:1 pbc="T T T"
Si       1.32010903      -1.44106228       1.27475178       0.00000000
Si      -1.34853508      -1.36207207      -1.34763142       0.00000000
Si       1.38952072       1.35930277      -1.31282541       0.00000000
Si      -1.29041236       1.36754551       1.41277963       0.00000000
Si       2.74369215      -0.04991256       2.45421738       0.00000000
Si       0.02005299       2.70127298      -2.66582506       0.00000000
Si      -2.66370824       2.71984358       0.06786150       0.00000000
Si      -2.71508690      -0.00439830      -2.67530700       0.00000000
Si      -0.06317262      -2.77576716       2.61611053       0.00000000
Si       2.74144413      -0.01016496      -2.66430795       0.00000000
