10
Lattice="16.290000149 0.0 0.0 0.0 16.290000149 0.0 0.0 0.0 29.1751946751" Properties=species:S:1:pos:R:3:initial_magmoms:R:1 pbc="T T T"
Si       1.36319608       1.34967538      -1.35025718       0.00000000
Si       1.37329588      -1.35229807       1.34491812       0.00000000
Si      -1.35107632       1.36213723       1.36046850       0.00000000
Si      -1.36956547      -1.36166482      -1.35203687       0.00000000
Si      -0.00302994      -2.67243968       2.70815827       0.00000000
Si      -0.02601513       2.69797589      -2.68362193       0.00000000
Si       2.66370824      -2.71984358      -0.06786150       0.00000000
Si       2.72386721       2.69269304       0.02748303       0.00000000
Si       2.68376123      -0.01857060      -2.73368657       0.00000000
Si      -2.68837619       0.01278765       2.73033142       0.00000000
