10
Lattice="16.290000149 0.0 0.0 0.0 16.290000149 0.0 0.0 0.0 29.1751946751" Properties=species:S:1:pos:R:3:initial_magmoms:R:1 pbc="T T T"
Si      -1.39212712      -1.34346889      -1.32954280       0.00000000
Si      -1.35982405       1.35532801       1.35367068       0.00000000
Si       1.33017625      -1.37028223       1.37167178       0.00000000
Si       1.36054081       1.34431597      -1.37213858       0.00000000
Si      -0.03604977      -2.73849238      -2.61914475       0.00000000
Si       2.70728399       2.70143588      -0.00986122       0.00000000
Si      -2.70218034       2.71352306      -0.00989039       0.00000000
Si       2.70360245      -0.02259423       2.71396413       0.00000000
Si       2.69001659      -2.72763020       0.03235529       0.00000000
Si      -0.01272249       2.71761185       2.70407374       0.00000000
