10
Lattice="16.290000149 0.0 0.0 0.0 16.290000149 0.0 0.0 0.0 29.1751946751" Properties=species:S:1:pos:R:3:initial_magmoms:R:1 pbc="T T T"
Si       0.12248451      -2.30382630      -0.23170940       0.00000000
Si      -1.74188972      -0.31875621       1.49846717       0.00000000
Si      -0.97884982       0.86523847      -1.98508025       0.00000000
Si       1.84430495       1.17309504       0.99735403       0.00000000
H       -0.38752281       2.69559103       1.50946622       0.00000000
Si      -2.49766427       2.18032204      -0.78288717       0.00000000
Si       1.72428023      -2.22436368      -2.02388325       0.00000000
Si      -1.06088626       3.51259970       0.42735825       0.00000000
Si       0.40938399      -3.18785203       2.01084194       0.00000000
Si      -3.66008610       0.73974194       0.71960618       0.00000000
