10
Lattice="10.86 0.0 0.0 0.0 10.86 0.0 0.0 0.0 10.86" Properties=species:S:1:pos:R:3:initial_magmoms:R:1 pbc="T T T"
Si       1.35750000       1.35750000       1.35750000       0.00000000
Si      -1.35750000      -1.35750000       1.35750000       0.00000000
Si       1.35750000      -1.35750000      -1.35750000       0.00000000
Si      -1.35750000       1.35750000      -1.35750000       0.00000000
Si       0.06763608       2.60775750      -2.66998530       0.00000000
Si       0.05790552      -2.66965950       2.62045284       0.00000000
Si      -2.65659492      -2.63786142       0.05939334       0.00000000
Si      -0.24368754      -2.68978308      -2.64169500       0.00000000
Si       2.56887870      -2.80798332       0.12284832       0.00000000
Si      -2.79805728       2.61972522      -0.08553336       0.00000000
