10
Lattice="16.28999089631971 0.0 0.0 0.0 16.28999089631971 0.0 0.0 0.0 34.40785480372833" Properties=species:S:1:pos:R:3:initial_magmoms:R:1 pbc="T T T"
Si      -1.33884904      -1.37469468       1.37930501       0.00000000
Si       1.36963062       1.35100581       1.37641474       0.00000000
Si       1.33688772      -1.33776525      -1.45140326       0.00000000
Si      -1.50099481       1.35082173      -1.41873299       0.00000000
Si      -2.70944144       2.70107051       0.04262103       0.00000000
Si      -2.69298854      -2.72432118      -0.00947593       0.00000000
Si       2.72007162       2.70781457      -0.01860434       0.00000000
Si      -2.70200818      -0.01159787       2.74023965       0.00000000
Si       0.01187541       2.70292757       2.74065254       0.00000000
Si       2.72373687      -2.72303427       0.02117116       0.00000000
