10
Lattice="16.28999089631971 0.0 0.0 0.0 16.28999089631971 0.0 0.0 0.0 34.40785480372833" Properties=species:S:1:pos:R:3:initial_magmoms:R:1 pbc="T T T"
Si       1.35530031       1.33159347      -1.37211720       0.00000000
Si       1.46871129      -1.29018543       1.31895704       0.00000000
Si      -1.36848923      -1.37571010      -1.36289589       0.00000000
Si      -1.00678390       1.70564445       1.34820373       0.00000000
Si       0.04530738      -2.58527906       2.62962177       0.00000000
Si       2.69961627       2.67678909      -0.00701921       0.00000000
Si      -2.70410972       2.70984150       0.00000000       0.00000000
Si      -0.00599635       2.69498502      -2.72441547       0.00000000
Si      -2.84702189       0.52207821       2.51542204       0.00000000
Si       2.70663726      -0.01853150      -2.72806270       0.00000000
