10
Lattice="16.28999089631971 0.0 0.0 0.0 16.28999089631971 0.0 0.0 0.0 34.40785480372833" Properties=species:S:1:pos:R:3:initial_magmoms:R:1 pbc="T T T"
Si       0.17264142       2.04397865      -1.10421749       0.00000000
Si       0.08501751      -1.45588617      -1.82485601       0.00000000
Si       1.61753184      -0.88234785       1.44860590       0.00000000
Si      -1.76946867      -0.10538001       1.58527398       0.00000000
Si      -0.30643119      -1.60751349       2.60976843       0.00000000
Si      -1.38142458       1.50054262      -2.80117943       0.00000000
Si      -1.84665069      -0.81969651      -2.97800150       0.00000000
Si       2.58318675       0.87538292       2.62081336       0.00000000
Si      -2.13588290       2.29632704       2.17478409       0.00000000
Si       2.41039872       2.33749187      -1.91610569       0.00000000
