10
Lattice="16.28999089631971 0.0 0.0 0.0 16.28999089631971 0.0 0.0 0.0 34.40785480372833" Properties=species:S:1:pos:R:3:initial_magmoms:R:1 pbc="T T T"
Si      -0.88690905      -1.71121400       1.28743942       0.00000000
Si       0.82634283       1.76977818       1.28152127       0.00000000
Si       1.29505500      -1.40337535      -1.36795385       0.00000000
Si      -1.45583730       1.28967930      -1.38787601       0.00000000
Si      -1.14940611       3.25405782       1.15262937       0.00000000
Si       2.60157816       2.69202024       0.05026990       0.00000000
Si      -1.64647917      -0.81143748       3.31196432       0.00000000
Si      -2.68674228      -2.67729522      -0.06189977       0.00000000
Si       2.62335789      -0.05536971      -2.74853539       0.00000000
Si      -0.08764020       2.66804136      -2.74715907       0.00000000
