10
Lattice="16.28999089631971 0.0 0.0 0.0 16.28999089631971 0.0 0.0 0.0 34.40785480372833" Properties=species:S:1:pos:R:3:initial_magmoms:R:1 pbc="T T T"
Si      -1.31564556      -0.24418256       1.93902133       0.00000000
Si       0.34990920      -2.20813754      -0.80084327       0.00000000
Si       2.06356833       0.99597581       0.73102969       0.00000000
Si      -0.86250663       0.98011098      -2.02861944       0.00000000
Si       2.59444314      -2.20043237      -1.58462023       0.00000000
Si      -2.17318374       1.86577059       2.49821810       0.00000000
Si       3.21175269       1.60099293      -1.30939165       0.00000000
Si      -0.66920949      -0.65477201      -3.76896971       0.00000000
Si       0.03489318      -3.83355374       0.88139210       0.00000000
Si      -1.00041777      -2.76931175      -2.69692357       0.00000000
