10
Lattice="16.28999089631971 0.0 0.0 0.0 16.28999089631971 0.0 0.0 0.0 34.40785480372833" Properties=species:S:1:pos:R:3:initial_magmoms:R:1 pbc="T T T"
Si       0.56508381      -2.37517974      -0.40043884       0.00000000
Si      -1.39002570       0.87641829       1.85903476       0.00000000
Si      -0.47840472       1.33250571      -2.05143186       0.00000000
Si       2.31927246      -0.31861611       1.00505400       0.00000000
Si       1.17190260      -1.77021312       2.59620970       0.00000000
Si      -0.79061886       3.14418177       1.12696110       0.00000000
Si       2.57223987      -2.19119233      -1.71392502       0.00000000
Si      -3.62411775       0.12965211       1.22426657       0.00000000
Si      -0.23411988      -0.35434008       3.90917633       0.00000000
Si       1.24693434       0.90738558      -3.67899312       0.00000000
