10
Lattice="16.28999089631971 0.0 0.0 0.0 16.28999089631971 0.0 0.0 0.0 34.40785480372833" Properties=species:S:1:pos:R:3:initial_magmoms:R:1 pbc="T T T"
Si      -0.73479303       2.20968963       0.06829963       0.00000000
Si      -1.95621723      -0.85788027      -0.97849112       0.00000000
Si       0.50748237      -0.62892432       2.20647374       0.00000000
Si       1.99529694       0.03471399      -1.24508333       0.00000000
Si      -0.79188948       2.58525558      -2.36647035       0.00000000
Si      -1.56177117      -1.12036104       3.10727188       0.00000000
Si      -2.82424617       2.06166240       1.11739571       0.00000000
Si       3.47107320       1.28529729       0.11151592       0.00000000
Si       0.60989760       3.18865347       1.81171220       0.00000000
Si       1.87437627      -2.54720214       2.03164733       0.00000000
