10
Lattice="16.28999089631971 0.0 0.0 0.0 16.28999089631971 0.0 0.0 0.0 34.40785480372833" Properties=species:S:1:pos:R:3:initial_magmoms:R:1 pbc="T T T"
Si      -2.06925354      -0.49143672       0.90079814       0.00000000
Si      -0.50748237       0.62892432      -2.20647374       0.00000000
Si       1.36689390      -1.91827782      -0.17482641       0.00000000
Si       0.52059582       2.04402033       1.18122232       0.00000000
Si      -3.15690426       1.55949057       1.00897650       0.00000000
Si      -1.68371811      -1.33690401       3.05056770       0.00000000
Si       2.64857481       1.69487676       2.02638293       0.00000000
Si      -1.24227540       2.83861395      -2.13817411       0.00000000
Si       1.48781457       0.66363831      -3.45155707       0.00000000
Si       0.10241523       3.81757779      -0.39476154       0.00000000
