10
Lattice="16.28999089631971 0.0 0.0 0.0 16.28999089631971 0.0 0.0 0.0 34.40785480372833" Properties=species:S:1:pos:R:3:initial_magmoms:R:1 pbc="T T T"
Si      -1.33196814      -1.33973847      -1.36764418       0.00000000
Si       1.35855342      -1.35234693       1.35666807       0.00000000
Si      -1.35619137       1.36230012       1.35670247       0.00000000
Si       1.35449721       1.36684503      -1.38028907       0.00000000
Si      -2.62858698       0.10099800      -2.66897062       0.00000000
Si       2.71396287      -2.71024875      -0.00643427       0.00000000
Si       0.00105885      -2.71101438       2.71361139       0.00000000
Si      -2.71393029       0.00382815       2.71330172       0.00000000
Si      -2.71524978      -2.71464705      -0.00822348       0.00000000
Si       2.71596654       0.00319284       2.71405870       0.00000000
