10
Lattice="16.28999089631971 0.0 0.0 0.0 16.28999089631971 0.0 0.0 0.0 34.40785480372833" Properties=species:S:1:pos:R:3:initial_magmoms:R:1 pbc="T T T"
Si      -1.62627957       1.68928929       0.10467460       0.00000000
Si      -0.55371339      -1.84805163       1.34839366       0.00000000
Si       2.01619701       0.77226003       1.21905446       0.00000000
Si      -0.73583559      -0.86364693      -2.22716392       0.00000000
Si      -2.00736783      -0.59124555       2.66139813       0.00000000
Si       0.71208477       2.13094377       2.65431011       0.00000000
Si      -3.38996692       0.65650329       1.17566269       0.00000000
Si      -1.38199473       3.05805654      -1.70612548       0.00000000
Si      -0.67476438       3.51621279       1.18173568       0.00000000
Si      -2.52633465      -2.39449968      -1.50466738       0.00000000
