10
Lattice="16.28999089631971 0.0 0.0 0.0 16.28999089631971 0.0 0.0 0.0 34.40785480372833" Properties=species:S:1:pos:R:3:initial_magmoms:R:1 pbc="T T T"
Si      -1.18092726       1.49758857      -1.36984628       0.00000000
Si      -1.36536264      -1.31890356       1.41199593       0.00000000
Si       1.89723114       0.78367932       1.20179822       0.00000000
Si       1.51470936      -1.24133058      -1.38705022       0.00000000
Si       0.01871721      -3.30649533       1.69754687       0.00000000
Si      -2.52369567       0.11375307      -2.74506019       0.00000000
Si       0.19451889      -2.60420085      -2.75390301       0.00000000
Si      -2.64129318      -2.74704786      -0.00567730       0.00000000
Si       2.81206125      -2.59893918       0.01568999       0.00000000
Si      -2.64937302       0.18956673       2.81053837       0.00000000
