10
Lattice="16.28999089631971 0.0 0.0 0.0 16.28999089631971 0.0 0.0 0.0 34.40785480372833" Properties=species:S:1:pos:R:3:initial_magmoms:R:1 pbc="T T T"
Si      -2.26739581       0.78216435       0.26483741       0.00000000
Si      -0.59398227      -0.58191138      -2.28475165       0.00000000
Si       1.60230069       1.77261264      -0.58300702       0.00000000
Si       0.38029005      -1.67878224       1.93186450       0.00000000
Si       1.69621254       0.58459923       2.31189946       0.00000000
Si       1.45394766      -1.76655276      -1.99297288       0.00000000
Si       3.03844338      -0.16733088      -0.81481286       0.00000000
Si      -0.69954147      -3.45910331       0.75170882       0.00000000
Si       1.97581410       2.75983551       1.50087147       0.00000000
Si      -2.19310967       2.95340958      -0.69989057       0.00000000
