10
Lattice="16.28999089631971 0.0 0.0 0.0 16.28999089631971 0.0 0.0 0.0 34.40785480372833" Properties=species:S:1:pos:R:3:initial_magmoms:R:1 pbc="T T T"
Si       2.30931927       0.03740184       0.27467806       0.00000000
Si      -0.85638159       2.18970180      -0.01383197       0.00000000
Si      -0.63052074      -0.94913685      -2.05817580       0.00000000
Si      -0.75650760      -1.21624398       1.90248017       0.00000000
Si      -2.66957262       0.11609883       2.14636318       0.00000000
Si      -3.06926243       1.63450602       0.25386129       0.00000000
Si       3.04697934      -0.46460709      -1.88592998       0.00000000
Si       0.45712998      -3.00006414      -2.16635416       0.00000000
Si       2.89126323       2.24779194       0.85486363       0.00000000
Si       0.98197749      -1.05208965       3.49491099       0.00000000
