10
Lattice="16.28999089631971 0.0 0.0 0.0 16.28999089631971 0.0 0.0 0.0 34.40785480372833" Properties=species:S:1:pos:R:3:initial_magmoms:R:1 pbc="T T T"
Si       0.16607655       1.36176974      -1.85665546       0.00000000
Si      -2.01631104      -0.66297042       1.02016078       0.00000000
Si       1.64089170      -1.70228871      -0.22641039       0.00000000
Si       0.77289534       1.96673635       1.13999308       0.00000000
Si      -0.79957836      -0.39596103      -3.02886291       0.00000000
Si      -0.62946189      -2.04823944       2.49273521       0.00000000
Si       2.11553343       0.65431239       2.49242554       0.00000000
Si      -2.72354139      -1.12112667      -1.86770039       0.00000000
Si       0.67465035      -3.40692318       1.05747956       0.00000000
Si       3.45535335      -0.67165299       0.97850661       0.00000000
