10
Lattice="16.28999089631971 0.0 0.0 0.0 16.28999089631971 0.0 0.0 0.0 34.40785480372833" Properties=species:S:1:pos:R:3:initial_magmoms:R:1 pbc="T T T"
Si       1.96152777       0.75118307      -1.32270749       0.00000000
Si      -1.74793329       1.74465153      -0.27512536       0.00000000
Si      -0.93908592      -1.86100218      -1.40022843       0.00000000
Si       0.57651939      -0.65414124       2.43390979       0.00000000
Si       0.43403076       2.05249017      -2.93051863       0.00000000
Si      -2.30014800      -0.67378698      -2.95226441       0.00000000
Si      -0.86102424       3.45586553      -1.56256478       0.00000000
Si      -2.41699617      -3.13393536       0.03172406       0.00000000
Si       3.74935527       1.09899575       0.68461347       0.00000000
Si      -3.54776652       0.77857031      -1.62446455       0.00000000
