10
Lattice="16.28999089631971 0.0 0.0 0.0 16.28999089631971 0.0 0.0 0.0 34.40785480372833" Properties=species:S:1:pos:R:3:initial_magmoms:R:1 pbc="T T T"
Si      -1.87284501      -1.40491476      -0.04596892       0.00000000
Si      -0.85753818       2.10995315       0.55919677       0.00000000
Si       1.31564556       0.24418256      -1.93902133       0.00000000
Si       1.11861801      -1.02741030       1.86046816       0.00000000
Si      -2.29944753       1.47166045       2.30873394       0.00000000
Si      -2.76467364      -0.84857868       2.13191188       0.00000000
Si      -3.17272837      -0.34471269      -1.69014918       0.00000000
Si       1.09032228       3.30316307       1.13308570       0.00000000
Si      -0.83300544      -1.48476834       3.28505737       0.00000000
Si       1.66555476      -1.96395498      -2.73986460       0.00000000
