10
Lattice="16.28999089631971 0.0 0.0 0.0 16.28999089631971 0.0 0.0 0.0 34.40785480372833" Properties=species:S:1:pos:R:3:initial_magmoms:R:1 pbc="T T T"
Si       1.34524449       1.36507594      -1.37139464       0.00000000
Si      -1.36836000      -1.34650090      -1.37308062       0.00000000
Si      -1.19856933       1.53125023       1.37428490       0.00000000
Si       1.40810760      -1.33853368       1.47128069       0.00000000
Si       0.66327993       2.20068778       2.72097468       0.00000000
Si       2.57934231       0.55220494       2.50812757       0.00000000
Si      -0.27311814      -2.41162114       2.86872209       0.00000000
Si       2.69791722      -2.69970979      -0.00825789       0.00000000
Si      -0.00925272      -2.70456421      -2.73298303       0.00000000
Si       2.70624141       0.01274367      -2.73250132       0.00000000
