10
Lattice="16.28999089631971 0.0 0.0 0.0 16.28999089631971 0.0 0.0 0.0 34.40785480372833" Properties=species:S:1:pos:R:3:initial_magmoms:R:1 pbc="T T T"
Si      -0.93530664      -2.19221046      -0.52324054       0.00000000
Si       1.28816433       0.57290301       2.05349633       0.00000000
Si       1.82576691       0.94811058      -1.42300645       0.00000000
Si      -1.25762058       2.00933892      -1.00429703       0.00000000
Si      -0.03608235       0.27867303      -2.76969623       0.00000000
Si       3.44287521       1.33107219       1.20468849       0.00000000
Si       0.88936884      -3.66419834      -1.27525904       0.00000000
Si       0.29199825       2.47142106       3.17154579       0.00000000
Si       1.30808700      -1.24836949       3.64950557       0.00000000
Si       3.74182929      -0.70037226      -1.63585356       0.00000000
