10
Lattice="16.28999089631971 0.0 0.0 0.0 16.28999089631971 0.0 0.0 0.0 34.40785480372833" Properties=species:S:1:pos:R:3:initial_magmoms:R:1 pbc="T T T"
Si      -0.17264142      -2.04397865       1.10421749       0.00000000
Si      -1.55406600      -0.54343603      -1.69696194       0.00000000
Si      -0.65668248       2.17308600       0.75040132       0.00000000
Si       2.23775730       0.29351322      -0.81188820       0.00000000
Si      -0.11215665       0.09485667      -3.44649911       0.00000000
Si       1.36705680       2.53908972       2.07403783       0.00000000
Si      -0.08762391      -3.49986482      -0.72063851       0.00000000
Si       1.83570381       1.28806659      -2.87261018       0.00000000
Si       3.09239586       2.11396959       0.44647657       0.00000000
Si      -2.90917571       1.88667522       1.62157429       0.00000000
