10
Lattice="16.28999089631971 0.0 0.0 0.0 16.28999089631971 0.0 0.0 0.0 34.40785480372833" Properties=species:S:1:pos:R:3:initial_magmoms:R:1 pbc="T T T"
Si       1.28125737       2.12470470       0.15634938       0.00000000
Si      -1.68648741       0.84734064      -1.71585186       0.00000000
Si       1.25762058      -2.00933892       1.00429703       0.00000000
Si       1.22153823      -1.73066589      -1.76539920       0.00000000
Si      -2.29226364       0.27282492       2.17206586       0.00000000
Si      -0.30089259      -0.53644599      -3.14694416       0.00000000
Si       3.08338749      -1.06122834      -0.41870942       0.00000000
Si      -1.83684411       2.83224456      -0.06836845       0.00000000
Si      -3.46172274      -0.07490142      -0.48460050       0.00000000
Si       0.95649993       3.53980071      -1.75022533       0.00000000
