10
Lattice="16.28999089631971 0.0 0.0 0.0 16.28999089631971 0.0 0.0 0.0 34.40785480372833" Properties=species:S:1:pos:R:3:initial_magmoms:R:1 pbc="T T T"
Si      -1.35720135       1.35754344      -1.35697774       0.00000000
Si      -1.35584928      -1.35933534       1.35732181       0.00000000
Si       1.35799956      -1.35791811      -1.35697774       0.00000000
Si       1.35870003       1.35780408       1.35721859       0.00000000
Si       0.00228060      -2.71585251       2.71017061       0.00000000
Si       0.00058644      -2.71345788      -2.71436837       0.00000000
Si      -2.71415835       0.00118917      -2.71433396       0.00000000
Si      -2.71474479       2.71469592       0.00010322       0.00000000
Si      -2.71453302      -2.71490769       0.00000000       0.00000000
Si       2.71490769      -0.00045612      -2.71495330       0.00000000
