10
Lattice="16.28999089631971 0.0 0.0 0.0 16.28999089631971 0.0 0.0 0.0 34.40785480372833" Properties=species:S:1:pos:R:3:initial_magmoms:R:1 pbc="T T T"
Si       0.52986809       1.08388773       2.07073468       0.00000000
Si      -0.60065140       1.63432683      -1.65742729       0.00000000
Si       0.36641423      -2.40170705      -0.58951011       0.00000000
Si      -2.13840852      -1.41802006       1.89140084       0.00000000
Si      -0.30120047      -0.75709730       3.35551578       0.00000000
Si       1.65184184       1.92073761      -2.52860025       0.00000000
Si      -3.20827056      -1.77207507      -0.43556928       0.00000000
Si       2.13588290      -2.29632704      -2.17478409       0.00000000
Si      -1.24754684       2.85221610       2.23158017       0.00000000
Si       2.30852432      -0.25234839      -3.27900158       0.00000000
