10
Lattice="16.28999089631971 0.0 0.0 0.0 16.28999089631971 0.0 0.0 0.0 34.40785480372833" Properties=species:S:1:pos:R:3:initial_magmoms:R:1 pbc="T T T"
Si      -2.12797899       0.34914357      -0.84516061       0.00000000
Si       1.03164570      -0.59838057      -2.02855062       0.00000000
Si       1.00447398       1.52146971       1.57801392       0.00000000
Si      -0.13435992      -2.08318149       1.21862367       0.00000000
Si      -2.86563906       0.85115250       1.31544743       0.00000000
Si       3.13108461       0.29877489      -1.60987561       0.00000000
Si       2.45659716      -0.04720842       2.54122794       0.00000000
Si       3.61258443      -0.59839686       0.53910257       0.00000000
Si       0.99513981      -2.93464350      -2.08277743       0.00000000
Si      -2.64857481      -1.69487676      -2.02638293       0.00000000
