10
Lattice="16.28999089631971 0.0 0.0 0.0 16.28999089631971 0.0 0.0 0.0 34.40785480372833" Properties=species:S:1:pos:R:3:initial_magmoms:R:1 pbc="T T T"
Si      -1.11444777       0.99515025      -1.85055869       0.00000000
Si      -1.49191965      -1.67387895       0.85138844       0.00000000
Si       2.28745809      -0.46113732      -0.61032687       0.00000000
Si      -0.28245231       1.61096601       1.91331865       0.00000000
Si       3.18834396      -1.40221062       1.35130044       0.00000000
Si      -3.25526328      -0.33075216       2.05459738       0.00000000
Si       0.35552925       0.75995149      -3.78631127       0.00000000
Si      -2.83615416      -0.44693244      -2.64345374       0.00000000
Si       3.47192028       1.68446486      -0.64704007       0.00000000
Si       0.27943866       3.77361827       1.02026228       0.00000000
