10
Lattice="16.28999089631971 0.0 0.0 0.0 16.28999089631971 0.0 0.0 0.0 34.40785480372833" Properties=species:S:1:pos:R:3:initial_magmoms:R:1 pbc="T T T"
Si       1.44623272      -1.25750655       1.26419690       0.00000000
Si      -1.31365885       1.49941305       1.22672673       0.00000000
Si      -1.04062801      -1.68588468      -1.31458964       0.00000000
Si       1.74350893       1.16242182      -1.13634825       0.00000000
Si       0.06916082      -2.58761763       2.60882909       0.00000000
Si      -2.64986239       0.13141143       2.60824416       0.00000000
Si       2.77798909       0.12629637       2.60408081       0.00000000
Si       0.73678693      -3.45421305      -1.47543514       0.00000000
Si      -2.64184771       2.76488541      -0.48120788       0.00000000
Si       0.06583766       2.84429916       2.60879469       0.00000000
