10
Lattice="16.28999089631971 0.0 0.0 0.0 16.28999089631971 0.0 0.0 0.0 34.40785480372833" Properties=species:S:1:pos:R:3:initial_magmoms:R:1 pbc="T T T"
Si       1.36099692      -1.35233227      -1.36110668       0.00000000
Si      -1.35593073       1.36036161      -1.36086583       0.00000000
Si      -1.34524449      -1.36507594       1.37139464       0.00000000
Si       1.37700999       1.37489229       1.36410017       0.00000000
Si      -2.54381382       0.16617429       2.74567953       0.00000000
Si       2.71263048      -2.71065931       0.00120428       0.00000000
Si      -2.71360449      -2.71157683      -0.00168599       0.00000000
Si       0.00164529      -2.71225686      -2.71880698       0.00000000
Si      -2.71305063       0.00161271      -2.71808442       0.00000000
Si       2.70833725       2.72412783      -0.00670954       0.00000000
