10
Lattice="16.28999089631971 0.0 0.0 0.0 16.28999089631971 0.0 0.0 0.0 34.40785480372833" Properties=species:S:1:pos:R:3:initial_magmoms:R:1 pbc="T T T"
Si       1.05217110       1.30577056       1.57570859       0.00000000
Si      -2.21511420      -0.03318762      -0.67728459       0.00000000
Si       1.26392481      -0.70228633      -1.88286768       0.00000000
Si      -0.32892768      -1.76822478       1.59828016       0.00000000
Si       0.73200744      -3.24367524       0.15531714       0.00000000
Si       0.42712380      -2.86778349      -2.13703865       0.00000000
Si      -3.26925639       1.04268706       1.10727979       0.00000000
Si      -0.42002136       1.10734207       3.42778123       0.00000000
Si      -2.23503687       1.78808488      -2.27329383       0.00000000
Si      -2.90545182      -2.33382987       0.09228192       0.00000000
