10
Lattice="16.28999089631971 0.0 0.0 0.0 16.28999089631971 0.0 0.0 0.0 34.40785480372833" Properties=species:S:1:pos:R:3:initial_magmoms:R:1 pbc="T T T"
Si       1.04153245      -0.73883295      -1.96623796       0.00000000
Si      -1.66777020      -1.18249110       1.22492032       0.00000000
Si      -1.46566017       1.82649996      -0.55007868       0.00000000
Si       1.79298884       0.61501266       1.54587696       0.00000000
Si      -0.49234896       3.64091274       0.63971119       0.00000000
Si       1.03918473       2.82005964       2.27264008       0.00000000
Si       1.25458479       1.13104728      -3.40331723       0.00000000
Si      -1.90452906       0.30753891       3.28041230       0.00000000
Si      -0.43411221      -2.02652487      -3.27397803       0.00000000
Si      -3.61931220       1.51270569       0.43556928       0.00000000
