10
Lattice="16.28999089631971 0.0 0.0 0.0 16.28999089631971 0.0 0.0 0.0 34.40785480372833" Properties=species:S:1:pos:R:3:initial_magmoms:R:1 pbc="T T T"
Si      -0.93786417       0.57460206       2.09829538       0.00000000
Si       2.04377598       0.73084922      -0.95117127       0.00000000
Si      -0.23338683      -2.09213352      -1.12025156       0.00000000
Si      -1.99067058       0.83699323      -1.03750063       0.00000000
Si      -0.86439627       1.09015286      -3.04712692       0.00000000
Si      -2.12232636      -1.57100013       2.13500858       0.00000000
Si       1.24994799       2.11064480      -2.66337590       0.00000000
Si      -1.99199007      -3.16165347       0.25410215       0.00000000
Si      -0.86490126      -1.26127836      -3.42551031       0.00000000
Si       2.63769309      -0.97858170      -2.48813659       0.00000000
