10
Lattice="16.28999089631971 0.0 0.0 0.0 16.28999089631971 0.0 0.0 0.0 34.40785480372833" Properties=species:S:1:pos:R:3:initial_magmoms:R:1 pbc="T T T"
Si       1.66777020       1.18249110      -1.22492032       0.00000000
Si       0.85313988      -1.60889814       1.54281466       0.00000000
Si      -1.74798216      -1.00028093      -1.44943169       0.00000000
Si      -0.23675886       1.49003001       2.05549199       0.00000000
Si      -1.95154200       2.69519679      -0.78935104       0.00000000
Si       0.20211003       3.00899106      -1.77499900       0.00000000
Si      -2.52198522       1.94768127       1.82086469       0.00000000
Si      -3.29668875       0.87902469      -1.51910764       0.00000000
Si      -1.06139124      -2.88827306       2.33164958       0.00000000
Si       3.46075904       1.79750376       0.32095665       0.00000000
