10
Lattice="16.28999089631971 0.0 0.0 0.0 16.28999089631971 0.0 0.0 0.0 34.40785480372833" Properties=species:S:1:pos:R:3:initial_magmoms:R:1 pbc="T T T"
Si      -0.14892318      -0.80000190       2.23262372       0.00000000
Si      -0.91010601      -1.69570755      -1.46505287       0.00000000
Si       1.73205054       1.17007812      -1.25196490       0.00000000
Si      -1.42672707       1.67586633       1.12727077       0.00000000
Si      -3.41808183      -0.42186213       0.37693826       0.00000000
Si       2.00904963      -0.48272157       3.05951375       0.00000000
Si      -2.29951269      -0.36908253      -2.91672107       0.00000000
Si       0.42956730       2.33297235      -2.92573594       0.00000000
Si      -1.61595171      -3.60779517      -0.19812054       0.00000000
Si      -2.69977428       2.87280666      -0.47623938       0.00000000
