10
Lattice="16.28999089631971 0.0 0.0 0.0 16.28999089631971 0.0 0.0 0.0 34.40785480372833" Properties=species:S:1:pos:R:3:initial_magmoms:R:1 pbc="T T T"
Si      -1.35795069      -1.35721764      -1.35680570       0.00000000
Si       1.35731538       1.35806472      -1.35714978       0.00000000
Si      -1.35531171       1.35773892       1.36090023       0.00000000
Si       1.36042677      -1.35923760       1.35835405       0.00000000
Si      -0.00057015      -2.71415835      -2.71495330       0.00000000
Si      -2.71503801       0.00014661      -2.71447159       0.00000000
Si      -0.00004887       2.71547784      -2.71467804       0.00000000
Si      -2.71433754       2.71586880      -0.00027526       0.00000000
Si       2.71489140       0.00045612      -2.71546942       0.00000000
Si      -2.71679733      -2.71396287      -0.00075697       0.00000000
