10
Lattice="16.28999089631971 0.0 0.0 0.0 16.28999089631971 0.0 0.0 0.0 34.40785480372833" Properties=species:S:1:pos:R:3:initial_magmoms:R:1 pbc="T T T"
Si       1.32763500      -1.41486795      -1.26672588       0.00000000
Si      -1.39976712       1.34210052      -1.27095805       0.00000000
Si      -1.80170658      -0.87503364       1.18277067       0.00000000
Si       1.74527802       1.00923066       1.27515581       0.00000000
Si      -0.52865937      -2.07197397       2.78628082       0.00000000
Si       2.63011824      -2.57776218       0.40704515       0.00000000
Si      -0.03748329       2.67102243      -2.63388835       0.00000000
Si       2.67871131      -0.04360833      -2.63516144       0.00000000
Si       0.84887190       1.66174290       3.27755645       0.00000000
Si      -2.74686867      -0.04434138      -2.63199592       0.00000000
