10
Lattice="16.28999089631971 0.0 0.0 0.0 16.28999089631971 0.0 0.0 0.0 34.40785480372833" Properties=species:S:1:pos:R:3:initial_magmoms:R:1 pbc="T T T"
Si       1.35413950       1.34962650       1.38878093       0.00000000
Si      -1.36399428      -1.36301688       1.38695732       0.00000000
Si      -1.21316517       1.48419819      -1.50274669       0.00000000
Si       1.31467372      -1.47315357      -1.44800033       0.00000000
Si      -2.70834282       2.69133934       0.02638052       0.00000000
Si       2.69298854       2.72432118       0.00947593       0.00000000
Si       2.69727281      -2.72090241       0.03773512       0.00000000
Si      -2.70879894      -2.72279205      -0.01091762       0.00000000
Si       2.70895274      -0.00286704       2.75050696       0.00000000
Si      -0.00901964       2.71272331       2.74971558       0.00000000
