10
Lattice="16.28999089631971 0.0 0.0 0.0 16.28999089631971 0.0 0.0 0.0 34.40785480372833" Properties=species:S:1:pos:R:3:initial_magmoms:R:1 pbc="T T T"
Si      -1.36228383      -1.32892191       1.36293030       0.00000000
Si      -1.35293337       1.35808101      -1.35917984       0.00000000
Si       1.36111095      -1.35711990      -1.35969596       0.00000000
Si       1.35423657       1.36293543       1.36554530       0.00000000
Si       0.03748329      -2.67102243       2.63388835       0.00000000
Si      -2.70938538      -2.71536381       0.00189243       0.00000000
Si      -2.71174743       0.00014661      -2.71629521       0.00000000
Si      -2.71204065       2.71614432       0.00072257       0.00000000
Si       2.71619460      -2.71463076      -0.00127309       0.00000000
Si       0.00324171      -2.71503801      -2.71615758       0.00000000
