10
Lattice="16.28999089631971 0.0 0.0 0.0 16.28999089631971 0.0 0.0 0.0 34.40785480372833" Properties=species:S:1:pos:R:3:initial_magmoms:R:1 pbc="T T T"
Si      -1.11317715       1.65625317      -1.36812589       0.00000000
Si       1.30326516       1.35966114       1.54063462       0.00000000
Si       1.18392462      -0.60137793      -2.08085059       0.00000000
Si      -1.39659057      -1.32221043       1.60742374       0.00000000
Si      -0.81230085      -1.51554015      -3.12110385       0.00000000
Si       0.80135397       2.93562809      -2.15696081       0.00000000
Si       1.87121601       3.28968309       0.17000931       0.00000000
Si      -2.86233219      -2.48987763       0.15129142       0.00000000
Si      -2.08334439       0.45756981      -3.15086666       0.00000000
Si      -3.35170008      -0.88205463      -1.60302844       0.00000000
