10
Lattice="16.28999089631971 0.0 0.0 0.0 16.28999089631971 0.0 0.0 0.0 34.40785480372833" Properties=species:S:1:pos:R:3:initial_magmoms:R:1 pbc="T T T"
Si      -1.65699925       0.66587004      -1.51322389       0.00000000
Si       1.85463279      -1.21292082      -0.79382406       0.00000000
Si      -1.11609795      -1.43542593       1.49605436       0.00000000
Si       0.98660385       1.70662185       1.30206277       0.00000000
Si      -3.14114273       1.60658496       0.08484982       0.00000000
Si       0.71557083      -2.80310175       2.08377526       0.00000000
Si       3.07605699       1.85464908       0.25296669       0.00000000
Si       1.16142813       0.57552570       3.40011730       0.00000000
Si       1.57503123      -3.38815710       0.01720394       0.00000000
Si      -1.01059902      -0.27707661       3.61809118       0.00000000
