10
Lattice="16.28999089631971 0.0 0.0 0.0 16.28999089631971 0.0 0.0 0.0 34.40785480372833" Properties=species:S:1:pos:R:3:initial_magmoms:R:1 pbc="T T T"
Si      -1.35518947      -1.35969372       1.35460359       0.00000000
Si      -1.35624832       1.35716877      -1.35804438       0.00000000
Si       1.35797423       1.35654975       1.35742504       0.00000000
Si       1.35892393      -1.35795069      -1.35776912       0.00000000
Si      -0.00716496      -2.70832653       2.71213185       0.00000000
Si      -2.71071295      -0.00252495       2.71577909       0.00000000
Si      -2.71387321      -2.71415835       0.00024086       0.00000000
Si      -2.71382434       2.71477737       0.00027526       0.00000000
Si      -2.71460626      -0.00109143      -2.71460922       0.00000000
Si       2.71559097       0.00057015      -2.71381784       0.00000000
