10
Lattice="16.28999089631971 0.0 0.0 0.0 16.28999089631971 0.0 0.0 0.0 34.40785480372833" Properties=species:S:1:pos:R:3:initial_magmoms:R:1 pbc="T T T"
Si       1.33911945       1.35283563       1.38096002       0.00000000
Si      -1.35854527       1.35340578      -1.36155398       0.00000000
Si       1.35746199      -1.36125756      -1.36145076       0.00000000
Si      -1.37034086      -1.34775315       1.39317482       0.00000000
Si       2.59576263      -0.14706612       2.73934848       0.00000000
Si       2.71336014       2.71373481      -0.00003441       0.00000000
Si      -2.71739096       2.71204065      -0.00381927       0.00000000
Si      -0.00016290       2.71200807      -2.71877257       0.00000000
Si       2.71691136      -2.71539639      -0.00233974       0.00000000
Si       2.71476108      -0.00327429      -2.71904784       0.00000000
