10
Lattice="16.28999089631971 0.0 0.0 0.0 16.28999089631971 0.0 0.0 0.0 34.40785480372833" Properties=species:S:1:pos:R:3:initial_magmoms:R:1 pbc="T T T"
Si       1.15279443      -2.04936345      -0.27677694       0.00000000
Si      -2.18686408      -0.88839144       0.39128634       0.00000000
Si       0.22836951       1.39020489      -1.93922778       0.00000000
Si       1.19213478       1.08172116       1.78088274       0.00000000
Si      -1.95332250      -2.02333203       2.39946750       0.00000000
Si      -1.04922587       3.34415781      -1.56400991       0.00000000
Si       3.53033622       1.10423394       1.19367797       0.00000000
Si       1.32761871      -3.18045960       1.82127759       0.00000000
Si      -1.22525887       0.52025373      -3.67916515       0.00000000
Si      -2.97495215      -2.14940034      -1.49398989       0.00000000
