10
Lattice="16.28999089631971 0.0 0.0 0.0 16.28999089631971 0.0 0.0 0.0 34.40785480372833" Properties=species:S:1:pos:R:3:initial_magmoms:R:1 pbc="T T T"
Si      -1.70883307      -1.09283094       1.33600067       0.00000000
Si       0.96141299       1.58877999       1.58781126       0.00000000
Si      -0.19800544       0.74823228      -2.37101219       0.00000000
Si       1.82504526      -1.46222298      -1.09251882       0.00000000
Si      -1.68576643       2.58509268      -2.08842032       0.00000000
Si       2.72510034       2.62156599       0.51682317       0.00000000
Si       2.67652356      -2.69529453       0.68086030       0.00000000
Si      -0.38064421      -2.35830330       3.04393528       0.00000000
Si       2.34401208       0.34103115       3.07354670       0.00000000
Si       3.61554432       0.06862977      -1.81501536       0.00000000
