10
Lattice="16.28999089631971 0.0 0.0 0.0 16.28999089631971 0.0 0.0 0.0 34.40785480372833" Properties=species:S:1:pos:R:3:initial_magmoms:R:1 pbc="T T T"
Si      -1.35713502      -1.35697329       1.35656484       0.00000000
Si      -1.35747711       1.35742941      -1.35749385       0.00000000
Si       1.35797697      -1.35757602      -1.35742504       0.00000000
Si       1.36007349       1.35718506       1.35735622       0.00000000
Si       0.00210258      -2.71401174      -2.71471245       0.00000000
Si      -0.00205137      -2.71448415       2.71498771       0.00000000
Si       2.71517669      -2.71451673       0.00003441       0.00000000
Si       2.71683827      -0.00307881       2.71292324       0.00000000
Si      -2.71500426      -2.71489140       0.00010322       0.00000000
Si       2.71610522      -0.00016290      -2.71447159       0.00000000
