10
Lattice="16.28999089631971 0.0 0.0 0.0 16.28999089631971 0.0 0.0 0.0 34.40785480372833" Properties=species:S:1:pos:R:3:initial_magmoms:R:1 pbc="T T T"
Si       1.34431596       1.34519562       1.36509799       0.00000000
Si       1.35133695      -1.35012497      -1.35594550       0.00000000
Si      -1.35530031      -1.33159347       1.37211720       0.00000000
Si      -1.36129666       1.36339155      -1.35229827       0.00000000
Si      -2.36208421       0.37405098       2.72032093       0.00000000
Si      -0.29610333       2.39809977       2.71657047       0.00000000
Si       0.11341098      -2.62177890       2.69107424       0.00000000
Si       2.70923877      -2.71130046       0.00650309       0.00000000
Si      -0.00366525      -2.70950996      -2.71116843       0.00000000
Si       2.71023246       0.00441459      -2.71168455       0.00000000
