10
Lattice="16.28999089631971 0.0 0.0 0.0 16.28999089631971 0.0 0.0 0.0 34.40785480372833" Properties=species:S:1:pos:R:3:initial_magmoms:R:1 pbc="T T T"
Si       1.35599915       1.35781701      -1.35787234       0.00000000
Si       1.35676478      -1.36026387       1.35556701       0.00000000
Si      -1.36007349      -1.35718506      -1.35735622       0.00000000
Si      -1.36412514       1.36002340       1.36251740       0.00000000
Si       2.71118054      -2.71349046      -0.00089460       0.00000000
Si       2.71240229       0.00006516      -2.71443718       0.00000000
Si       2.71100135       2.71720199      -0.00264941       0.00000000
Si      -0.00209652      -2.71476108      -2.71478126       0.00000000
Si       0.01481575      -2.71577106       2.71426514       0.00000000
Si      -0.00282469       2.71528955      -2.71488448       0.00000000
