10
Lattice="16.28999089631971 0.0 0.0 0.0 16.28999089631971 0.0 0.0 0.0 34.40785480372833" Properties=species:S:1:pos:R:3:initial_magmoms:R:1 pbc="T T T"
Si       1.18206756      -0.98225442       1.68860083       0.00000000
Si       1.42340391       1.29509363      -1.31066474       0.00000000
Si      -1.30326744      -1.41247332      -1.33616097       0.00000000
Si      -0.99896470      -1.55908332       2.63419802       0.00000000
Si       2.55417426      -2.61741204       0.34552387       0.00000000
Si      -0.04530738       2.58527906      -2.62962177       0.00000000
Si       2.67102243      -0.15726366      -2.63846460       0.00000000
Si       1.91853846       1.00465317       3.07547900       0.00000000
Si      -2.77375436      -0.14455746      -2.63058519       0.00000000
Si      -0.03485571      -2.86622550      -2.64076992       0.00000000
