10
Lattice="10.86 0.0 0.0 0.0 10.86 0.0 0.0 0.0 10.86" Properties=species:S:1:pos:R:3:initial_magmoms:R:1 pbc="T T T"
Si      -1.16447436      -1.41076830       1.27145622       0.00000000
Si      -1.16447436       1.30423170      -1.44354378       0.00000000
Si       1.30730508      -1.08939918      -1.63944732       0.00000000
Si       1.55052564       1.30423170       1.27145622       0.00000000
Si      -2.52197436      -0.05326830       2.62895622       0.00000000
Si      -2.52197436       2.66173170      -0.08604378       0.00000000
Si      -2.52197436      -2.76826830      -0.08604378       0.00000000
Si       0.19302564       2.66173170       2.62895622       0.00000000
Si      -2.52197436      -0.05326830      -2.80104378       0.00000000
Si      -0.06767952      -2.78588322      -2.60204514       0.00000000
