10
Lattice="10.86 0.0 0.0 0.0 10.86 0.0 0.0 0.0 10.86" Properties=species:S:1:pos:R:3:initial_magmoms:R:1 pbc="T T T"
Si       0.62385270       1.67840214      -1.28357598       0.00000000
Si       0.99215874      -1.46189718       1.51698996       0.00000000
Si      -2.25966192      -0.71653194      -0.92154702       0.00000000
Si       2.06015286      -2.49651852      -0.06309660       0.00000000
Si       2.06015286       0.21848148       2.65190340       0.00000000
Si       2.06015286       0.21848148      -2.77809660       0.00000000
Si       2.06015286       2.93348148      -0.06309660       0.00000000
Si      -0.65484714      -2.49651852       2.65190340       0.00000000
Si      -0.65484714      -2.49651852      -2.77809660       0.00000000
Si       3.41765286      -1.13901852      -1.42059660       0.00000000
