10
Lattice="10.86 0.0 0.0 0.0 10.86 0.0 0.0 0.0 10.86" Properties=species:S:1:pos:R:3:initial_magmoms:R:1 pbc="T T T"
Si      -1.43391096      -1.18602060      -1.19120082       0.00000000
Si       1.28108904      -1.18602060       1.52379918       0.00000000
Si       1.28108904       1.52897940      -1.19120082       0.00000000
Si      -0.07641096      -2.54352060      -2.54870082       0.00000000
Si       2.63858904      -2.54352060       0.16629918       0.00000000
Si       2.63858904       0.17147940      -2.54870082       0.00000000
Si      -2.79141096      -2.54352060       0.16629918       0.00000000
Si      -2.79141096       0.17147940      -2.54870082       0.00000000
Si      -0.07641096      -2.54352060       2.88129918       0.00000000
Si      -0.07641096       2.88647940      -2.54870082       0.00000000
