10
Lattice="16.290000149 0.0 0.0 0.0 16.290000149 0.0 0.0 0.0 29.1751946751" Properties=species:S:1:pos:R:3:initial_magmoms:R:1 pbc="T T T"
Si      -1.36946773       1.38748447       1.31122077       0.00000000
Si      -1.35941680      -1.34521192      -1.36927941       0.00000000
Si       1.35334063       1.34755768      -1.37444342       0.00000000
Si       1.34765542      -1.33299442       1.40758644       0.00000000
Si       0.01282023       2.73805581       2.65097489       0.00000000
Si       2.67094100      -2.72701607       0.04215816       0.00000000
Si      -2.69430086      -2.70879571      -0.00116701       0.00000000
Si      -0.06511113      -2.61678979       2.78885686       0.00000000
Si      -0.00962739      -2.69529618      -2.74159304       0.00000000
Si       2.72725553       2.71168229      -0.04300424       0.00000000
