10
Lattice="16.290000149 0.0 0.0 0.0 16.290000149 0.0 0.0 0.0 29.1751946751" Properties=species:S:1:pos:R:3:initial_magmoms:R:1 pbc="T T T"
H        0.44313687       1.28629099      -0.66393991       0.00000000
Si      -0.81673174       0.97925707       1.94543116       0.00000000
Si      -1.87817186      -0.71325766      -1.27069643       0.00000000
Si       2.00616239      -1.36902790      -0.07778107       0.00000000
H        0.96817987      -0.24878088      -2.46845487       0.00000000
H       -0.65389690      -2.66690108      -1.04674763       0.00000000
Si       3.17849994       0.68375647      -0.67149628       0.00000000
Si      -2.32068971       2.28846809       0.65194890       0.00000000
Si       0.78550381      -2.96349312      -1.48848926       0.00000000
Si       2.00601578       0.85424761      -2.69126583       0.00000000
