10
Lattice="16.290000149 0.0 0.0 0.0 16.290000149 0.0 0.0 0.0 29.1751946751" Properties=species:S:1:pos:R:3:initial_magmoms:R:1 pbc="T T T"
Si      -1.08106957      -1.17405289       1.70152653       0.00000000
Si       0.88857064      -1.76355542      -1.29003958       0.00000000
Si       1.86961961       1.46717515       0.14952287       0.00000000
Si      -1.60130701       1.28852272      -1.21888128       0.00000000
H        0.47661282       2.28152855       1.78190419       0.00000000
H       -1.23704632      -0.37981764       2.97799965       0.00000000
H        2.58895343       1.54504135       1.47372661       0.00000000
Si       2.00531531      -0.34239951      -2.84968714       0.00000000
Si      -3.29129679      -1.10051983       0.89083539       0.00000000
Si      -0.28359261       2.64658745      -2.59895552       0.00000000
