10
Lattice="16.290000149 0.0 0.0 0.0 16.290000149 0.0 0.0 0.0 29.1751946751" Properties=species:S:1:pos:R:3:initial_magmoms:R:1 pbc="T T T"
Si       1.14569200       0.13587489      -2.05734720       0.00000000
Si      -0.92432719      -1.83171278       1.16820397       0.00000000
Si       1.55654209       0.78465673       1.59351996       0.00000000
Si      -1.92472868       1.50029272      -0.30482243       0.00000000
Si      -1.95533759      -0.34285563       2.63866296       0.00000000
H       -2.84594448       0.50324697       1.75135776       0.00000000
H        1.83949940      -2.83388988      -0.14768484       0.00000000
Si      -0.05885577       0.95931811       3.26975159       0.00000000
Si       2.38744613       2.71741963       0.57845658       0.00000000
Si       2.66520692       1.98687503      -1.62943462       0.00000000
