10
Lattice="16.290000149 0.0 0.0 0.0 16.290000149 0.0 0.0 0.0 29.1751946751" Properties=species:S:1:pos:R:3:initial_magmoms:R:1 pbc="T T T"
Si       0.31252365      -0.89010190      -2.13416549       0.00000000
Si       1.63844822       1.66682540       0.07763519       0.00000000
Si      -1.54614907       1.75646927       0.05592885       0.00000000
Si       0.17754471      -1.49600845       1.85551321       0.00000000
H       -2.69174333       0.76189960       0.55640014       0.00000000
H       -0.92030356      -1.44088309       2.89359581       0.00000000
Si       1.08910054       2.72220563       2.09002342       0.00000000
Si       2.25898319      -0.83064340       2.73625398       0.00000000
H       -1.87364324       0.33438483       3.11480213       0.00000000
Si       1.36402687       0.87571783      -3.31605263       0.00000000
