10
Lattice="16.290000149 0.0 0.0 0.0 16.290000149 0.0 0.0 0.0 29.1751946751" Properties=species:S:1:pos:R:3:initial_magmoms:R:1 pbc="T T T"
Si      -1.37165059      -1.40646232      -1.31206394       0.00000000
Si      -1.34643367       1.27915597       1.46059777       0.00000000
Si       1.33933123      -1.33649677       1.42179476       0.00000000
Si       1.34162812       1.41807709      -1.35998419       0.00000000
Si       2.67206501      -0.02225214      -2.67379573       0.00000000
Si       0.05957253      -2.77821066      -2.59706205       0.00000000
Si      -2.68082903      -2.69584841       0.15818791       0.00000000
Si      -2.77974192       2.59879259       0.17767694       0.00000000
Si      -2.72013680      -0.04406445      -2.68790193       0.00000000
Si       2.68819211       2.75108781       0.02879592       0.00000000
