10
Lattice="16.290000149 0.0 0.0 0.0 16.290000149 0.0 0.0 0.0 29.1751946751" Properties=species:S:1:pos:R:3:initial_magmoms:R:1 pbc="T T T"
Si      -0.93348054       0.81329129       1.99421208       0.00000000
Si       1.36093340       1.38347387      -1.33823700       0.00000000
Si      -1.87083973      -0.90111394      -1.11694315       0.00000000
Si       1.84235178      -1.17205248       0.93830344       0.00000000
H        2.63934003       1.42662608      -0.51322085       0.00000000
H       -2.91454004       0.21348534      -1.10165535       0.00000000
Si       0.52352802      -2.60386204       2.27872858       0.00000000
Si       1.96763817      -0.13824346      -3.09831815       0.00000000
Si       0.40091319       2.79062038       2.47846196       0.00000000
Si      -0.64847281      -1.01265939       3.56398343       0.00000000
