10
Lattice="16.290000149 0.0 0.0 0.0 16.290000149 0.0 0.0 0.0 29.1751946751" Properties=species:S:1:pos:R:3:initial_magmoms:R:1 pbc="T T T"
Si      -1.30354210       1.38140830      -1.37400579       0.00000000
Si       1.37801672       1.36150192       1.33304382       0.00000000
Si       1.39431487      -1.33749861      -1.34935275       0.00000000
Si      -1.38052864      -1.33748558       1.38226237       0.00000000
Si       0.08719146      -2.63248080       2.65383406       0.00000000
Si      -2.67675653      -0.00213399      -2.68341771       0.00000000
Si      -2.62690913       2.75219553      -0.00078773       0.00000000
Si       0.02495628      -2.70875009      -2.67944988       0.00000000
Si      -2.61345359       0.09171270       2.79947663       0.00000000
Si       2.72554508       0.02803509       2.70950033       0.00000000
