10
Lattice="16.290000149 0.0 0.0 0.0 16.290000149 0.0 0.0 0.0 29.1751946751" Properties=species:S:1:pos:R:3:initial_magmoms:R:1 pbc="T T T"
Si       1.38220163      -1.45535513       1.15752585       0.00000000
Si      -1.22860561      -1.36349631      -1.44358863       0.00000000
Si       1.40974802       1.29701959      -1.38792236       0.00000000
Si      -1.21233944       1.28657770       1.60778663       0.00000000
H        1.60687331       1.50390259       2.11461811       0.00000000
Si       2.23493426       0.20700518       2.55312129       0.00000000
Si      -2.50346840       2.63209913       0.10646029       0.00000000
Si      -2.56058114      -2.69033262      -0.08761311       0.00000000
Si       0.06221966       2.63048642      -2.76437887       0.00000000
Si      -2.69632571      -0.06850108      -2.71516032       0.00000000
