10
Lattice="16.290000149 0.0 0.0 0.0 16.290000149 0.0 0.0 0.0 29.1751946751" Properties=species:S:1:pos:R:3:initial_magmoms:R:1 pbc="T T T"
Si       1.44397819      -1.19413846      -1.35658733       0.00000000
Si      -1.34501481      -1.46300491       1.23186220       0.00000000
Si      -1.35677945       1.24265008      -1.45651237       0.00000000
Si       1.42752529       1.35909100       1.27805237       0.00000000
Si      -2.70511742      -0.00433314       2.51855247       0.00000000
Si       0.08741214      -2.54143550      -2.69850041       0.00000000
Si       0.09747936       2.67323789       2.69718052       0.00000000
Si      -2.52878029       2.83385273      -0.17125752       0.00000000
Si       2.75636577      -0.03699459       2.64657031       0.00000000
Si       0.04067613      -2.80266195       2.60363901       0.00000000
