10
Lattice="16.290000149 0.0 0.0 0.0 16.290000149 0.0 0.0 0.0 29.1751946751" Properties=species:S:1:pos:R:3:initial_magmoms:R:1 pbc="T T T"
Si      -1.25426485       1.10355303      -1.60548179       0.00000000
Si      -1.89512975      -0.01683734       1.33911226       0.00000000
Si       1.57328821       1.68750066       0.44317121       0.00000000
Si       0.43552944      -2.28950739       0.30266347       0.00000000
H        1.83813104       0.58319341      -2.37334374       0.00000000
H       -2.07363557       1.37057871       1.95004084       0.00000000
Si      -1.06103287      -1.26059840       3.05298865       0.00000000
Si       2.05092731      -2.46416877      -1.37356817       0.00000000
Si       0.84398491       2.32110022       2.62292206       0.00000000
Si      -2.58571172       2.65149400      -0.44763501       0.00000000
