10
Lattice="16.290000149 0.0 0.0 0.0 16.290000149 0.0 0.0 0.0 29.1751946751" Properties=species:S:1:pos:R:3:initial_magmoms:R:1 pbc="T T T"
Si       1.53709183      -1.27099468      -1.19930473       0.00000000
Si       1.39465207       1.32181948       1.36521822       0.00000000
Si      -1.21784041      -1.43413903       1.44195190       0.00000000
Si      -1.47053089       1.20935332      -1.45406253       0.00000000
H        0.35510571      -1.81017740      -2.24958256       0.00000000
Si      -2.66999618       2.68185530      -0.02433211       0.00000000
Si       2.85338884       2.50066163      -0.05140669       0.00000000
Si      -2.64906353      -0.06239070       2.72695001       0.00000000
Si      -0.14017545       2.54036036      -2.85397589       0.00000000
Si       0.06421518       2.76214872       2.67902976       0.00000000
