10
Lattice="16.290000149 0.0 0.0 0.0 16.290000149 0.0 0.0 0.0 29.1751946751" Properties=species:S:1:pos:R:3:initial_magmoms:R:1 pbc="T T T"
Si       1.31031874      -1.42363198       1.30118451       0.00000000
Si      -1.35254242      -1.38479662      -1.32242405       0.00000000
Si       1.37495746       1.33224508      -1.35442924       0.00000000
Si      -1.29950218       1.35713620       1.41677663       0.00000000
Si       2.65618226      -0.07817571       2.61850290       0.00000000
Si       0.00786807       2.69011433      -2.68198812       0.00000000
Si      -2.67054679       2.70249473       0.06243492       0.00000000
Si      -2.69119762      -0.02438613      -2.68443884       0.00000000
Si       0.03596832      -2.73311994      -2.65783106       0.00000000
Si      -2.63122436      -0.04025259       2.75921486       0.00000000
