10
Lattice="16.290000149 0.0 0.0 0.0 16.290000149 0.0 0.0 0.0 29.1751946751" Properties=species:S:1:pos:R:3:initial_magmoms:R:1 pbc="T T T"
Si       1.42498405      -1.36031275      -1.27028798       0.00000000
Si       1.35622396       1.34956135       1.35469181       0.00000000
Si      -1.32473539      -1.38686545       1.38302093       0.00000000
Si      -1.33933123       1.33649677      -1.42179476       0.00000000
Si       0.03497463      -2.70532919      -2.54592960       0.00000000
Si      -2.68576490       2.61565274       0.03880301       0.00000000
Si       2.69700500       2.70278795      -0.03083818       0.00000000
Si       2.70159878      -0.03114648       2.70938363       0.00000000
Si       0.01221750       2.68040549       2.74162222       0.00000000
Si      -2.71098182      -0.06996555      -2.73385870       0.00000000
