10
Lattice="16.290000149 0.0 0.0 0.0 16.290000149 0.0 0.0 0.0 29.1751946751" Properties=species:S:1:pos:R:3:initial_magmoms:R:1 pbc="T T T"
Si      -1.30751686       0.46586142      -0.61040342       0.00000000
H        0.56466028      -0.11567529      -2.33880031       0.00000000
Si       1.74749348      -0.62892433      -1.53665750       0.00000000
Si       1.05632506      -2.48880251      -0.11460016       0.00000000
Si      -2.56850948       0.71711839       1.32437879       0.00000000
Si       0.42963246      -2.15317964       2.21448480       0.00000000
Si      -2.29386008      -1.52573770      -1.48315020       0.00000000
Si      -1.35094600      -0.60820345       2.84344365       0.00000000
Si       3.03700989       1.04703976      -0.36113056       0.00000000
Si      -1.00792747       2.48964959      -1.81828566       0.00000000
