10
Lattice="16.290000149 0.0 0.0 0.0 16.290000149 0.0 0.0 0.0 29.1751946751" Properties=species:S:1:pos:R:3:initial_magmoms:R:1 pbc="T T T"
Si      -1.14569200      -0.13587489       2.05734720       0.00000000
Si      -1.52039458       0.99587287      -1.50541087       0.00000000
Si       0.97987609      -1.76909402      -1.27270952       0.00000000
Si       1.51951492       1.85100014       0.42791258       0.00000000
H        0.69380740      -2.96976477       1.90966237       0.00000000
H       -2.05713380      -2.81613378      -0.91157896       0.00000000
Si       2.25720758      -0.47130228      -2.78771903       0.00000000
Si      -2.54578493       2.61795452      -0.18429970       0.00000000
Si      -0.24503418       2.44302729      -2.78876933       0.00000000
Si       0.41085009       0.64878184       3.65086716       0.00000000
