10
Lattice="16.290000149 0.0 0.0 0.0 16.290000149 0.0 0.0 0.0 29.1751946751" Properties=species:S:1:pos:R:3:initial_magmoms:R:1 pbc="T T T"
Si       1.34724817      -1.34745994      -1.36650777       0.00000000
Si      -1.35395965      -1.37427328       1.34328431       0.00000000
Si      -1.35583300       1.33002964      -1.38763061       0.00000000
Si       1.36515088       1.33954300       1.37199270       0.00000000
Si      -0.02217069       2.68270238       2.70384034       0.00000000
Si      -2.72780939      -0.01539405       2.66384115       0.00000000
Si       2.68304447      -2.72345996      -0.01353729       0.00000000
Si      -0.01163106      -2.71239905      -2.69753850       0.00000000
Si      -2.73645938       2.67646331      -0.06727800       0.00000000
Si       2.70964604       2.71168229       0.00968616       0.00000000
