10
Lattice="16.290000149 0.0 0.0 0.0 16.290000149 0.0 0.0 0.0 29.1751946751" Properties=species:S:1:pos:R:3:initial_magmoms:R:1 pbc="T T T"
Si       1.23750244      -1.39380499       1.37219693       0.00000000
Si      -1.36223497       1.34951248       1.33091403       0.00000000
Si      -1.29044494      -1.42508179      -1.32817156       0.00000000
Si       1.45593505       1.29689578      -1.30483141       0.00000000
Si       2.68034033      -0.06146217       2.57759927       0.00000000
Si       0.09251091       2.62363484      -2.68484729       0.00000000
Si      -2.65184912      -0.06625143      -2.66133208       0.00000000
Si       0.02345760       2.70306488       2.62623432       0.00000000
Si      -2.61022817      -2.76384613       0.08320766       0.00000000
Si      -2.71888247       2.70001865       0.02243572       0.00000000
