10
Lattice="16.290000149 0.0 0.0 0.0 16.290000149 0.0 0.0 0.0 29.1751946751" Properties=species:S:1:pos:R:3:initial_magmoms:R:1 pbc="T T T"
Si       1.40900356       1.35948196       1.31918560       0.00000000
Si      -1.34959393      -1.38435679       1.35650068       0.00000000
Si       1.38890170      -1.34894233      -1.35273708       0.00000000
Si      -1.32840064       1.31694877      -1.44215905       0.00000000
Si       2.66936087      -0.09018144       2.67104742       0.00000000
Si      -2.68495040      -2.67195098      -0.07635148       0.00000000
H       -1.10398960       2.94282111       2.13976713       0.00000000
Si       0.07884360       2.42957207       2.94190993       0.00000000
Si       2.71966439       2.68527620      -0.13513950       0.00000000
Si       0.04660569      -2.67602348      -2.76076115       0.00000000
