10
Lattice="16.290000149 0.0 0.0 0.0 16.290000149 0.0 0.0 0.0 29.1751946751" Properties=species:S:1:pos:R:3:initial_magmoms:R:1 pbc="T T T"
Si      -1.31010697       1.42762303       1.29638460       0.00000000
Si       1.26816022       1.47942523      -1.32449549       0.00000000
Si       1.45152046      -1.41628519       1.21392150       0.00000000
Si      -1.37292121      -1.03490371      -1.62998895       0.00000000
Si       0.33831072      -1.47224134      -3.16171585       0.00000000
Si      -0.42916005       2.40534884      -2.62375443       0.00000000
Si       2.23796909       0.02689479      -2.84008850       0.00000000
Si      -2.22264020       0.80593147      -2.74906189       0.00000000
Si       2.40735251      -2.68677488      -0.54172501       0.00000000
Si      -2.60978834      -0.05618421       2.57055346       0.00000000
