10
Lattice="16.290000149 0.0 0.0 0.0 16.290000149 0.0 0.0 0.0 29.1751946751" Properties=species:S:1:pos:R:3:initial_magmoms:R:1 pbc="T T T"
Si      -1.88234210      -1.35031069      -0.38881782       0.00000000
Si       0.52463574       1.25353669      -1.93682447       0.00000000
Si       1.92472868      -1.50029272       0.30482243       0.00000000
H       -0.92121580      -0.99704575       2.05618020       0.00000000
Si      -1.63545086       1.52460718       1.06273564       0.00000000
H       -2.82805806      -1.43229826       0.80214280       0.00000000
Si       0.17607861       2.85208581       1.66642877       0.00000000
Si      -2.72510525       0.08941581      -1.98595550       0.00000000
Si      -0.03060891      -1.84314836       2.94348539       0.00000000
Si       1.55002609      -0.36854496      -3.25793564       0.00000000
