10
Lattice="16.290000149 0.0 0.0 0.0 16.290000149 0.0 0.0 0.0 29.1751946751" Properties=species:S:1:pos:R:3:initial_magmoms:R:1 pbc="T T T"
Si       1.32059773       1.34052040       1.39402581       0.00000000
Si      -1.35875869       1.33867963      -1.38152132       0.00000000
Si       1.41977125      -1.38135943      -1.28292959       0.00000000
Si      -1.37405337      -1.36158337       1.36114537       0.00000000
Si       0.03075552      -2.65474874      -2.65929916       0.00000000
Si       2.67633299       2.65469987      -0.00550828       0.00000000
Si       0.12851181       2.53866620      -2.81636323       0.00000000
Si       2.62255970      -2.78006772       0.15686043       0.00000000
Si       2.67297725      -0.02730204       2.74985546       0.00000000
Si      -2.86511781      -0.04580748      -2.54943908       0.00000000
