10
Lattice="16.290000149 0.0 0.0 0.0 16.290000149 0.0 0.0 0.0 29.1751946751" Properties=species:S:1:pos:R:3:initial_magmoms:R:1 pbc="T T T"
Si      -1.36404316      -1.34785253       1.34964451       0.00000000
Si      -1.36295173       1.36559071      -1.33555289       0.00000000
Si       1.35940051       1.34369695       1.36376530       0.00000000
Si       1.36218610      -1.36283770      -1.34561833       0.00000000
Si       0.01119123      -2.69389361       2.68598512       0.00000000
Si       2.71191035       0.02502144      -2.68073359       0.00000000
Si       0.00752598       2.72383463      -2.67349814       0.00000000
Si      -2.74867689       0.01532889      -2.66028178       0.00000000
Si      -0.00107514       2.69500133       2.71679413       0.00000000
Si      -2.71480997      -2.71777475      -0.00087526       0.00000000
