10
Lattice="16.290000149 0.0 0.0 0.0 16.290000149 0.0 0.0 0.0 29.1751946751" Properties=species:S:1:pos:R:3:initial_magmoms:R:1 pbc="T T T"
Si      -2.19641493      -0.19028349      -0.65725879       0.00000000
Si       1.31588829      -0.26598312      -1.91144205       0.00000000
Si       0.51577236       0.90989425       2.09343692       0.00000000
Si       0.79563456      -2.26036784      -0.21604232       0.00000000
Si       0.77449014       2.11388816      -1.17246355       0.00000000
H        2.07404119      -2.21721563       0.60897384       0.00000000
H       -2.26615242      -1.26387595      -1.72016948       0.00000000
H        1.96807474       2.47966382      -0.27774785       0.00000000
H        3.37013876       0.45471906       0.17572220       0.00000000
Si      -2.64171837       1.94395088      -1.54543924       0.00000000
