10
Lattice="16.290000149 0.0 0.0 0.0 16.290000149 0.0 0.0 0.0 29.1751946751" Properties=species:S:1:pos:R:3:initial_magmoms:R:1 pbc="T T T"
Si       1.33197553       1.32683631      -1.35597552       0.00000000
Si      -1.26312661      -1.47128023      -1.29672070       0.00000000
Si      -1.28528101       1.41519344       1.35154089       0.00000000
Si       1.21696075      -1.49913613       1.35259120       0.00000000
H       -1.90804772      -2.29724840      -0.21758860       0.00000000
Si      -2.56064141      -0.03196098       2.63489936       0.00000000
Si      -0.13574457       2.62183154      -2.62754721       0.00000000
Si       2.56058114       2.69033262       0.08761311       0.00000000
Si       2.71705962      -0.07012845      -2.64616098       0.00000000
Si       2.56872777      -2.80911279      -0.06138461       0.00000000
