10
Lattice="16.290000149 0.0 0.0 0.0 16.290000149 0.0 0.0 0.0 29.1751946751" Properties=species:S:1:pos:R:3:initial_magmoms:R:1 pbc="T T T"
Si      -1.34586352      -1.34545627      -1.31731839       0.00000000
Si       1.39843135      -1.28523214       1.35378738       0.00000000
Si       1.38556225       1.33110478      -1.34485977       0.00000000
Si      -1.18293094       1.45401283       1.41453014       0.00000000
Si       2.27892215       0.60246937       2.42375847       0.00000000
Si       0.68098717       2.38325960       2.51011705       0.00000000
Si      -2.65618226       0.07817571      -2.61850290       0.00000000
Si       0.09112626      -2.68076387      -2.59965572       0.00000000
Si       0.02207295      -2.60133383       2.71142589       0.00000000
Si      -2.72026712      -2.60438006       0.10762729       0.00000000
