10
Lattice="16.290000149 0.0 0.0 0.0 16.290000149 0.0 0.0 0.0 29.1751946751" Properties=species:S:1:pos:R:3:initial_magmoms:R:1 pbc="T T T"
Si      -0.84424555      -0.93188575      -0.81171227       0.00000000
H        1.43317792       0.91333144       0.54014955       0.00000000
H        0.80850529      -0.74906308       1.64766912       0.00000000
Si       2.07809903       1.73929961      -0.53898255       0.00000000
Si      -0.76408246       1.85626181       2.16818377       0.00000000
Si      -1.08670591       2.75667528      -0.06520656       0.00000000
Si      -2.13983813       0.36326700      -2.23718310       0.00000000
Si       0.58409425      -2.37493541      -1.93425706       0.00000000
Si      -2.67318902      -1.75651814       0.35407016       0.00000000
Si       1.99133849      -1.26231211       2.44981192       0.00000000
