10
Lattice="16.290000149 0.0 0.0 0.0 16.290000149 0.0 0.0 0.0 29.1751946751" Properties=species:S:1:pos:R:3:initial_magmoms:R:1 pbc="T T T"
Si       1.27536040       1.44715442      -1.28335846       0.00000000
Si      -1.02539035       1.62208165       1.32111117       0.00000000
Si       1.52039458      -0.99587287       1.50541087       0.00000000
Si      -1.54466668      -1.32235705      -1.22445375       0.00000000
Si       2.47045997       2.59159078       0.40845273       0.00000000
Si      -1.55002609       0.36854496       3.25793564       0.00000000
Si       2.56064141       0.03196098      -2.63489936       0.00000000
H        0.65259370      -2.26528742      -2.85248796       0.00000000
Si       3.03990951       0.85512727       1.93332345       0.00000000
Si       2.50027067      -2.76496689       0.23270135       0.00000000
