10
Lattice="16.290000149 0.0 0.0 0.0 16.290000149 0.0 0.0 0.0 29.1751946751" Properties=species:S:1:pos:R:3:initial_magmoms:R:1 pbc="T T T"
Si       1.34628706      -1.34495128       1.36519488       0.00000000
Si      -1.35426916       1.32911740       1.40090532       0.00000000
Si      -1.42172605      -1.46000755      -1.22480093       0.00000000
Si       1.45987723       1.43702546      -1.21492221       0.00000000
Si      -0.99611722       0.92633086      -3.42224158       0.00000000
Si       0.04329882       2.78001233      -2.46991947       0.00000000
Si      -2.82760194      -0.09554085      -2.47827524       0.00000000
Si       2.68988627      -2.64802097      -0.05884637       0.00000000
Si      -0.08360028      -2.61377939      -2.78175270       0.00000000
Si      -0.00930159      -2.71560818       2.71136754       0.00000000
