10
Lattice="16.290000149 0.0 0.0 0.0 16.290000149 0.0 0.0 0.0 29.1751946751" Properties=species:S:1:pos:R:3:initial_magmoms:R:1 pbc="T T T"
Si      -1.36003582      -1.35483931      -1.35299965       0.00000000
Si       1.34874685      -1.36034533       1.36469891       0.00000000
Si      -1.36878355       1.35304741       1.35221192       0.00000000
Si       1.35532801       1.34355034      -1.37575630       0.00000000
Si       2.69000030       2.69465924       0.01858460       0.00000000
Si       0.01901043      -2.71391402      -2.68864007       0.00000000
Si      -2.69122205      -2.71254566       0.03007963       0.00000000
Si      -0.02114442       2.69065190      -2.73502862       0.00000000
Si       2.71379999      -0.00610875       2.71268043       0.00000000
Si      -2.71969209       2.71221986      -0.00758555       0.00000000
