10
Lattice="16.290000149 0.0 0.0 0.0 16.290000149 0.0 0.0 0.0 29.1751946751" Properties=species:S:1:pos:R:3:initial_magmoms:R:1 pbc="T T T"
Si       1.37963269       1.34364808      -1.33517361       0.00000000
Si       1.36966321      -1.34801380       1.34106700       0.00000000
Si      -1.35057133       1.37657017       1.34874007       0.00000000
Si      -1.38007252      -1.34444629      -1.35685078       0.00000000
Si      -0.05409909       2.69025932      -2.59688408       0.00000000
Si      -0.00575037      -2.69089625       2.68213400       0.00000000
Si      -2.72767908       0.02090007       2.68070441       0.00000000
Si       2.72460026      -2.70107750      -0.02471139       0.00000000
Si       2.72758133       0.01484019       2.69873468       0.00000000
Si      -0.04414590      -2.78578551      -2.64604428       0.00000000
