10
Lattice="16.290000149 0.0 0.0 0.0 16.290000149 0.0 0.0 0.0 29.1751946751" Properties=species:S:1:pos:R:3:initial_magmoms:R:1 pbc="T T T"
Si      -1.40822816      -1.41441184      -1.17993240       0.00000000
Si      -1.43241881       1.14859162       1.42150301       0.00000000
Si       1.27610323       1.45678213      -1.30701955       0.00000000
Si       1.60824004      -1.01364526       1.36268582       0.00000000
H       -2.47025472       0.04556313       1.64431397       0.00000000
Si      -0.25993465       0.97810048       3.44127256       0.00000000
Si       2.05919611       0.79128676       2.85701011       0.00000000
Si       0.06036748      -2.62635527      -2.54261822       0.00000000
Si       1.70226592       3.23714883       0.13767774       0.00000000
Si      -2.66858547       0.03525156      -2.53179422       0.00000000
