10
Lattice="16.290000149 0.0 0.0 0.0 16.290000149 0.0 0.0 0.0 29.1751946751" Properties=species:S:1:pos:R:3:initial_magmoms:R:1 pbc="T T T"
Si       1.35896068       1.36360333      -1.34255493       0.00000000
Si      -1.35215146       1.38561112       1.33686577       0.00000000
Si       1.38663739      -1.34260552       1.34754389       0.00000000
Si      -1.35791812      -1.36285399      -1.35766768       0.00000000
Si      -2.70822881       0.03026682       2.66891763       0.00000000
Si       0.04621473      -2.78987430       2.60058933       0.00000000
Si       2.68973966       2.71915778       0.04052435       0.00000000
Si      -0.00115659       2.71666703      -2.69473768       0.00000000
Si       2.71015103       0.00273672      -2.70200230       0.00000000
Si      -2.72758133      -0.01484019      -2.69873468       0.00000000
