10
Lattice="16.290000149 0.0 0.0 0.0 16.290000149 0.0 0.0 0.0 29.1751946751" Properties=species:S:1:pos:R:3:initial_magmoms:R:1 pbc="T T T"
Si       1.36699165       1.35001747      -1.35072107       0.00000000
Si      -1.34351776      -1.36953289      -1.36312345       0.00000000
Si       1.35159760      -1.31898502       1.40764479       0.00000000
Si      -1.36293544       1.37375200       1.34929440       0.00000000
Si       2.67164147       2.64507248       0.12501571       0.00000000
Si      -2.69925302      -2.68371236       0.03641064       0.00000000
Si       0.08381205      -2.74507680      -2.65598427       0.00000000
Si      -0.00462636       2.76175776      -2.65475599       0.00000000
Si       2.77055436      -2.64956852       0.10552668       0.00000000
Si      -2.71738379      -0.01830996      -2.72410251       0.00000000
