10
Lattice="16.290000149 0.0 0.0 0.0 16.290000149 0.0 0.0 0.0 29.1751946751" Properties=species:S:1:pos:R:3:initial_magmoms:R:1 pbc="T T T"
Si       1.38142459      -1.35676153      -1.32462969       0.00000000
Si       1.33703434       1.32470281       1.40487315       0.00000000
Si      -1.35335692      -1.39766572       1.32014838       0.00000000
Si      -1.32884047       1.39608559      -1.36851794       0.00000000
Si      -0.03165147      -2.65302200      -2.66814507       0.00000000
Si      -2.65888640       2.71023248       0.05061021       0.00000000
Si       2.70454727       0.04631247      -2.66542478       0.00000000
Si      -2.70519887      -0.02850750       2.67889555       0.00000000
Si      -2.75636577       0.03699459      -2.64657031       0.00000000
Si       2.68716584       2.71988301       0.09473769       0.00000000
