10
Lattice="16.290000149 0.0 0.0 0.0 16.290000149 0.0 0.0 0.0 29.1751946751" Properties=species:S:1:pos:R:3:initial_magmoms:R:1 pbc="T T T"
Si       1.34171283       1.36101322       1.35367068       0.00000000
Si      -1.33579630       1.37600002      -1.35297048       0.00000000
Si       1.36571940      -1.35096229      -1.34964451       0.00000000
Si      -1.35369901      -1.34721559       1.37429755       0.00000000
Si      -2.69467553       0.01106091      -2.68400121       0.00000000
Si       2.67009392       0.00000000       2.71723176       0.00000000
Si      -0.00431685      -2.71956665      -2.67469432       0.00000000
Si       2.69356781      -2.71269227       0.02371943       0.00000000
Si      -2.68304447       2.72345996       0.01353729       0.00000000
Si       2.69299766       2.72587088      -0.01024049       0.00000000
