10
Lattice="16.290000149 0.0 0.0 0.0 16.290000149 0.0 0.0 0.0 29.1751946751" Properties=species:S:1:pos:R:3:initial_magmoms:R:1 pbc="T T T"
Si      -0.12566106       2.30354286       0.24049113       0.00000000
Si       1.59128866       0.07148052      -1.79596663       0.00000000
Si       0.32262345      -0.90041347       2.23339033       0.00000000
Si      -2.13291488      -0.96658345      -0.67625184       0.00000000
H        1.08670591      -2.75667528       0.06520656       0.00000000
H        2.51988383      -1.84334384       0.60535611       0.00000000
Si      -1.87160699       1.96376440       1.72842606       0.00000000
Si      -1.85849354      -0.17547588       2.71743598       0.00000000
Si       3.16480494      -1.01737567      -0.47377599       0.00000000
Si      -1.05313222      -2.39340827      -2.17197654       0.00000000
