10
Lattice="16.290000149 0.0 0.0 0.0 16.290000149 0.0 0.0 0.0 29.1751946751" Properties=species:S:1:pos:R:3:initial_magmoms:R:1 pbc="T T T"
Si      -0.84971899       1.84083518      -1.11907294       0.00000000
Si       1.71123194      -0.43733763      -1.53172690       0.00000000
Si       1.37292121       1.03490371       1.62998895       0.00000000
Si      -1.40382334      -1.73058446       0.90944917       0.00000000
H        1.10688922      -0.53103771      -2.92986057       0.00000000
H       -2.00883395      -1.16743915      -2.18723517       0.00000000
Si       2.18733977      -2.46669698      -0.47351341       0.00000000
Si       0.31648212      -3.35722242       0.80654826       0.00000000
Si       2.64108143       2.51432894       0.30549346       0.00000000
Si      -2.57448791       2.61110783       0.24944791       0.00000000
