10
Lattice="16.290000149 0.0 0.0 0.0 16.290000149 0.0 0.0 0.0 29.1751946751" Properties=species:S:1:pos:R:3:initial_magmoms:R:1 pbc="T T T"
Si       1.34796633       1.35363385      -1.35749263       0.00000000
Si      -1.34377840       1.36506943       1.35104492       0.00000000
Si       1.34268697      -1.35773893       1.36901684       0.00000000
Si      -1.37085238      -1.34783461      -1.35553789       0.00000000
Si      -2.68420106      -0.08219934       2.60409035       0.00000000
Si       2.67042787      -2.70659981      -0.02646190       0.00000000
Si       2.66231219       2.71987616       0.03652734       0.00000000
Si      -0.02026476       2.71041167      -2.69850128       0.00000000
Si       2.69107870       0.02028105       2.72041185       0.00000000
Si      -0.02684592      -2.67867875      -2.74246830       0.00000000
