10
Lattice="16.290000149 0.0 0.0 0.0 16.290000149 0.0 0.0 0.0 29.1751946751" Properties=species:S:1:pos:R:3:initial_magmoms:R:1 pbc="T T T"
Si       0.08317674      -0.69265081      -2.22915409       0.00000000
Si      -0.98844463      -1.78724433       1.15249896       0.00000000
Si       1.83870119       0.88148449       1.18553404       0.00000000
Si      -1.63295848       1.73563436      -0.08250599       0.00000000
H        2.53366517      -0.94726351      -0.73663866       0.00000000
Si      -2.30459519      -0.46446048       2.55281495       0.00000000
Si       0.55125361       2.33005646       2.51402944       0.00000000
Si      -2.12134898      -0.30651264      -3.02674556       0.00000000
Si      -2.07133868       1.98558812      -2.36452699       0.00000000
Si       2.02158902       0.33365178      -3.13431450       0.00000000
