10
Lattice="16.290000149 0.0 0.0 0.0 16.290000149 0.0 0.0 0.0 29.1751946751" Properties=species:S:1:pos:R:3:initial_magmoms:R:1 pbc="T T T"
Si      -1.30917844      -1.28938609       1.47025184       0.00000000
Si      -1.34848621       1.36239787      -1.37583800       0.00000000
Si       1.37165059       1.40646232       1.31206394       0.00000000
Si       1.43122312      -1.37174833      -1.28499811       0.00000000
Si      -2.62117505      -2.64960110       0.12518493       0.00000000
Si       2.64906353       0.06239070      -2.72695001       0.00000000
Si       2.74595646      -2.63536364       0.18792910       0.00000000
Si      -2.71274114       2.71019990       0.01400409       0.00000000
Si       2.71098182       0.06996555       2.73385870       0.00000000
Si      -2.73580778      -0.01822851      -2.71600932       0.00000000
