10
Lattice="16.290000149 0.0 0.0 0.0 16.290000149 0.0 0.0 0.0 29.1751946751" Properties=species:S:1:pos:R:3:initial_magmoms:R:1 pbc="T T T"
Si      -1.31199661      -1.36021501      -1.34506692       0.00000000
Si       1.31699764      -1.39139407       1.34165050       0.00000000
Si      -1.41895675       1.33058350       1.30211811       0.00000000
Si       1.30917844       1.28938609      -1.47025184       0.00000000
Si      -0.04556313       2.65709450       2.66585424       0.00000000
Si       2.69542487      -0.02751381       2.64662779       0.00000000
Si       2.68082903       2.69584841      -0.15818791       0.00000000
Si       2.64419282      -2.75033847      -0.02459469       0.00000000
Si      -2.77035888      -0.04497669       2.64887427       0.00000000
Si      -2.77055436       2.64956852      -0.10552668       0.00000000
