10
Lattice="16.290000149 0.0 0.0 0.0 16.290000149 0.0 0.0 0.0 29.1751946751" Properties=species:S:1:pos:R:3:initial_magmoms:R:1 pbc="T T T"
Si       1.46772010      -1.29499523       1.27157168       0.00000000
Si      -1.39986487      -1.41449818      -1.25952233       0.00000000
Si      -1.23292495       1.42919828       1.41721426       0.00000000
Si       1.38052864       1.33748558      -1.38226237       0.00000000
Si       0.13574457      -2.62183154       2.62754721       0.00000000
Si      -2.58440852       2.74025007      -0.01006544       0.00000000
Si      -2.66263310      -0.02340221      -2.68858171       0.00000000
Si       0.02937087      -2.69782439      -2.67037639       0.00000000
Si       2.69632571       0.06850108       2.71516032       0.00000000
Si       2.75854537       2.69898750      -0.04921855       0.00000000
