10
Lattice="16.290000149 0.0 0.0 0.0 16.290000149 0.0 0.0 0.0 29.1751946751" Properties=species:S:1:pos:R:3:initial_magmoms:R:1 pbc="T T T"
Si       1.27779413       1.40807503       1.32359106       0.00000000
Si      -1.31494510       1.38178297      -1.32942610       0.00000000
Si       1.41832307      -1.31445640      -1.30173884       0.00000000
Si      -1.31066083      -1.32579424       1.45432510       0.00000000
Si       0.02544498      -2.68855049      -2.61240528       0.00000000
Si      -2.55406025       2.74590759       0.08825496       0.00000000
Si       2.63402786       0.09573633       2.67909978       0.00000000
Si       2.78646969      -2.55958256       0.14077031       0.00000000
Si      -2.70120782       0.02129103      -2.65575962       0.00000000
Si       2.75004525       0.08293239      -2.64417707       0.00000000
