10
Lattice="16.290000149 0.0 0.0 0.0 16.290000149 0.0 0.0 0.0 29.1751946751" Properties=species:S:1:pos:R:3:initial_magmoms:R:1 pbc="T T T"
Si       1.34058556       1.33250572      -1.37342229       0.00000000
Si      -1.43840701       1.37169946       1.23367311       0.00000000
Si       1.34281729      -1.34791606       1.38112454       0.00000000
Si      -1.38228796      -1.35057133      -1.33975411       0.00000000
Si      -0.15788268      -2.70892928       2.54267657       0.00000000
Si       2.69936705       2.64098369       0.01531698       0.00000000
Si      -0.01282023      -2.73805581      -2.65097489       0.00000000
Si       2.71443530      -0.02637351      -2.69397913       0.00000000
Si      -2.81476542       0.05559777       2.59131162       0.00000000
Si      -0.01655064       2.66761784      -2.74917859       0.00000000
