10
Lattice="16.290000149 0.0 0.0 0.0 16.290000149 0.0 0.0 0.0 29.1751946751" Properties=species:S:1:pos:R:3:initial_magmoms:R:1 pbc="T T T"
Si      -1.32506119      -1.33614996      -1.33728298       0.00000000
Si       1.31703658      -1.43531028       1.27571456       0.00000000
Si      -1.44269128       1.33166027       1.28259991       0.00000000
Si       1.29897409       1.29062576      -1.47197318       0.00000000
Si       2.63108426      -0.05142264       2.63956739       0.00000000
Si      -0.07413579       2.68060260       2.62037011       0.00000000
Si      -2.74163960       0.00683691      -2.59228023       0.00000000
Si       2.66146837       2.68561992      -0.15381163       0.00000000
Si      -0.15087798       2.67519432      -2.69903227       0.00000000
Si      -0.08110791      -2.77012919       2.61045054       0.00000000
