10
Lattice="16.290000149 0.0 0.0 0.0 16.290000149 0.0 0.0 0.0 29.1751946751" Properties=species:S:1:pos:R:3:initial_magmoms:R:1 pbc="T T T"
Si       1.33865520      -1.36041049       1.36201479       0.00000000
Si      -1.35189897      -1.35278677      -1.36131458       0.00000000
Si      -1.32774090       1.34886088       1.39547874       0.00000000
Si       1.35874077       1.35182566      -1.36256912       0.00000000
Si       2.69119762       0.02438613       2.68443884       0.00000000
Si      -2.67042787       2.70659981       0.02646190       0.00000000
Si       0.03630227      -2.71376741      -2.68470141       0.00000000
Si      -2.69013877      -2.71028135       0.01928480       0.00000000
Si      -2.69727379       0.02792106      -2.71600640       0.00000000
Si       2.69906569       2.71450046       0.00245072       0.00000000
