10
Lattice="16.290000149 0.0 0.0 0.0 16.290000149 0.0 0.0 0.0 29.1751946751" Properties=species:S:1:pos:R:3:initial_magmoms:R:1 pbc="T T T"
Si       1.34032492       1.36267480       1.36501983       0.00000000
Si      -1.35090854       1.35917245      -1.35979747       0.00000000
Si      -1.35874077      -1.35182566       1.36256912       0.00000000
Si       1.36878355      -1.35304741      -1.35221192       0.00000000
Si      -2.68120230       2.70840800       0.03153839       0.00000000
Si       2.70741431       0.00480555       2.69257872       0.00000000
Si       0.00874773      -2.70788672      -2.70521158       0.00000000
Si      -2.71063973      -2.70461243       0.00125453       0.00000000
Si       2.70875009       2.70653465       0.02217315       0.00000000
Si       2.71753040      -2.71339274       0.01248698       0.00000000
