10
Lattice="16.290000149 0.0 0.0 0.0 16.290000149 0.0 0.0 0.0 29.1751946751" Properties=species:S:1:pos:R:3:initial_magmoms:R:1 pbc="T T T"
Si       1.81152947       1.32747863       0.60369313       0.00000000
Si      -0.73070425      -0.34174954       2.26341160       0.00000000
Si      -1.21995811       1.87141802      -0.95469990       0.00000000
Si       1.63545086      -1.52460718      -1.06273564       0.00000000
H        0.71423506      -2.52165293       0.99344455       0.00000000
H       -1.19260720      -2.95690544      -0.26059284       0.00000000
Si      -0.24689124      -2.87491787      -1.45155346       0.00000000
Si       0.48008259       2.87541960       1.76153990       0.00000000
Si      -1.08965440      -1.43519137      -3.04869114       0.00000000
Si      -1.45832968       1.84911701       2.66670032       0.00000000
