10
Lattice="16.290000149 0.0 0.0 0.0 16.290000149 0.0 0.0 0.0 29.1751946751" Properties=species:S:1:pos:R:3:initial_magmoms:R:1 pbc="T T T"
Si       1.36708939      -1.35786925       1.32755888       0.00000000
Si       1.36842517       1.34385985      -1.34284669       0.00000000
Si      -1.34032492      -1.36267480      -1.36501983       0.00000000
Si      -1.31831713       1.36260964       1.39075236       0.00000000
Si      -0.01381392       2.68965821      -2.67892473       0.00000000
Si      -0.00786807      -2.69011433       2.68198812       0.00000000
Si       2.71731863       0.00285075       2.67524865       0.00000000
Si      -2.69906569      -2.71450046      -0.00245072       0.00000000
Si      -2.69123346      -0.00350235      -2.72481731       0.00000000
Si       2.71845893      -0.02106297      -2.69864716       0.00000000
