10
Lattice="16.290000149 0.0 0.0 0.0 16.290000149 0.0 0.0 0.0 29.1751946751" Properties=species:S:1:pos:R:3:initial_magmoms:R:1 pbc="T T T"
Si       1.34501481       1.46300491      -1.23186220       0.00000000
Si       1.38569094      -1.33965703       1.37177681       0.00000000
Si      -1.36010261       1.45867177       1.28669027       0.00000000
Si      -1.22038344      -1.48963906      -1.39824746       0.00000000
Si      -2.67912021      -2.66848121       0.01837746       0.00000000
Si      -2.66299311       0.10485873       2.72096910       0.00000000
Si      -0.01176464       2.70565499      -2.68837457       0.00000000
Si       2.78899301       0.26886645      -2.58844953       0.00000000
Si       0.03979484      -2.66843234       2.75317851       0.00000000
Si       0.03052094       2.74551663       2.72155260       0.00000000
