10
Lattice="16.290000149 0.0 0.0 0.0 16.290000149 0.0 0.0 0.0 29.1751946751" Properties=species:S:1:pos:R:3:initial_magmoms:R:1 pbc="T T T"
Si       1.39986487       1.41449818       1.25952233       0.00000000
Si      -1.26276823       1.39109597      -1.42905939       0.00000000
Si       1.42923574      -1.28332621      -1.41085406       0.00000000
Si      -1.30103344      -1.58975740       1.26815819       0.00000000
Si       0.27248283      -2.67861359       2.59034883       0.00000000
Si      -2.53259003      -2.73044837      -0.35065666       0.00000000
Si      -2.58605381       2.78511762      -0.06363110       0.00000000
Si       2.86758498       0.11950295       2.53109401       0.00000000
Si      -2.56810223       0.07677477      -2.87646997       0.00000000
Si       2.86950689      -2.63099792      -0.12268169       0.00000000
