10
Lattice="16.290000149 0.0 0.0 0.0 16.290000149 0.0 0.0 0.0 29.1751946751" Properties=species:S:1:pos:R:3:initial_magmoms:R:1 pbc="T T T"
Si      -1.39268098      -1.34301277      -1.32942610       0.00000000
Si      -1.35944938       1.35526285       1.35364151       0.00000000
Si       1.32985045      -1.36990756       1.37260538       0.00000000
Si       1.36023130       1.34462548      -1.37222611       0.00000000
Si      -0.03645702      -2.73816006      -2.61853207       0.00000000
Si       2.70730028       2.70161507      -0.01006544       0.00000000
Si      -2.70238070       2.71381628      -0.00933606       0.00000000
Si       2.68980482      -2.72714476       0.03302632       0.00000000
Si       2.70343955      -0.02207295       2.71510197       0.00000000
Si      -0.01151703       2.71884989       2.70197313       0.00000000
