10
Lattice="16.290000149 0.0 0.0 0.0 16.290000149 0.0 0.0 0.0 29.1751946751" Properties=species:S:1:pos:R:3:initial_magmoms:R:1 pbc="T T T"
Si       1.44283789       1.33234282       1.20540234       0.00000000
Si      -1.23750244       1.39380499      -1.37219693       0.00000000
Si       1.52278921      -1.31357348      -1.19939225       0.00000000
Si      -1.16111863      -1.44521460       1.49762109       0.00000000
H        2.08718885       0.49342410       2.28704351       0.00000000
Si       2.50362641      -2.17259080       0.78758438       0.00000000
Si       0.75768049      -2.51236926       2.27551931       0.00000000
Si       0.01736514       2.56857464       2.48893586       0.00000000
Si      -2.42880644      -2.73143504      -0.00002918       0.00000000
Si      -2.52794738      -0.03127680      -2.70036849       0.00000000
