10
Lattice="16.290000149 0.0 0.0 0.0 16.290000149 0.0 0.0 0.0 29.1751946751" Properties=species:S:1:pos:R:3:initial_magmoms:R:1 pbc="T T T"
Si      -1.25402050       1.34170794       1.48287245       0.00000000
Si       1.35645202      -1.39032203       1.39366987       0.00000000
Si      -1.44529768      -1.43933717      -1.27384735       0.00000000
Si       1.52102989       1.37433681      -1.28052847       0.00000000
H       -0.64830943       1.15934139      -2.72537164       0.00000000
Si      -0.02977812      -2.61907527      -2.74001758       0.00000000
Si      -2.58908375      -0.06709525       2.83360869       0.00000000
Si      -2.88673627       2.52333568       0.26631118       0.00000000
Si       0.13499523       2.61509725       2.85924202       0.00000000
Si       3.72555561       0.98819865      -0.48293700       0.00000000
