10
Lattice="16.290000149 0.0 0.0 0.0 16.290000149 0.0 0.0 0.0 29.1751946751" Properties=species:S:1:pos:R:3:initial_magmoms:R:1 pbc="T T T"
Si       1.35664750      -1.35050617       1.30847831       0.00000000
Si       1.37440360       1.25892379      -1.42494568       0.00000000
Si      -1.31136130      -1.42811173      -1.32108199       0.00000000
Si      -1.19899288       1.39717702       1.47559382       0.00000000
Si      -2.56713949       2.64230318       0.03308467       0.00000000
Si      -2.63974240      -0.06709851      -2.68464306       0.00000000
Si       2.72026712       2.60438006      -0.10762729       0.00000000
Si       2.74234007       0.00304623       2.60379860       0.00000000
Si      -2.56717045      -0.03064149       2.77832461       0.00000000
Si       0.00819387      -2.65917962       2.69780108       0.00000000
