10
Lattice="16.290000149 0.0 0.0 0.0 16.290000149 0.0 0.0 0.0 29.1751946751" Properties=species:S:1:pos:R:3:initial_magmoms:R:1 pbc="T T T"
Si       1.32027519      -1.33530760      -1.40706129       0.00000000
Si       1.39287809       1.37409409       1.31066645       0.00000000
Si      -1.33933123       1.36668214      -1.37520198       0.00000000
Si      -1.35620767      -1.34566804       1.39480771       0.00000000
Si      -0.02544498       2.68855049       2.61240528       0.00000000
Si       2.64865628      -2.69632082      -0.04350022       0.00000000
Si      -2.69850368      -2.67274919      -0.01321636       0.00000000
Si      -2.72665280       2.70984152      -0.04335434       0.00000000
Si       2.67156002       0.02955006      -2.77097246       0.00000000
Si       0.03420688      -2.70541064       2.74246830       0.00000000
