10
Lattice="16.28999089631971 0.0 0.0 0.0 16.28999089631971 0.0 0.0 0.0 34.395419527814205" Properties=species:S:1:pos:R:3:initial_magmoms:R:1 pbc="T T T"
Si       1.24093148      -1.43275993       1.41042624       0.00000000
Si      -1.47461871       1.28013499       1.40464437       0.00000000
Si      -1.14410860      -1.81041100      -1.13649099       0.00000000
Si       1.75872542       0.87663169      -1.50790089       0.00000000
Si       2.61450427       2.58393772      -0.04137771       0.00000000
Si       2.54484823      -2.76896347      -0.06122732       0.00000000
Si       2.58962944      -0.07589348       2.77207631       0.00000000
Si       0.56988121      -3.56445304      -1.28365587       0.00000000
Si      -0.12132466       2.64183238       2.77303938       0.00000000
Si      -2.83033767       2.61457921       0.02347489       0.00000000
