10
Lattice="16.28999089631971 0.0 0.0 0.0 16.28999089631971 0.0 0.0 0.0 34.395419527814205" Properties=species:S:1:pos:R:3:initial_magmoms:R:1 pbc="T T T"
Si      -0.26280168       2.26378872       0.09788942       0.00000000
Si       2.28017646      -0.45804222      -0.19364632       0.00000000
Si      -1.24035970      -0.25425432      -2.09478541       0.00000000
Si       0.27453537       0.62147979       2.48464447       0.00000000
Si      -0.28003813      -3.45297501       0.23144691       0.00000000
Si       2.17442178      -2.88952020       0.02067166       0.00000000
Si      -0.57653568       1.73258811      -3.18663421       0.00000000
Si       0.71421876       3.15089881      -1.75980823       0.00000000
Si      -1.76512703      -2.53998567       2.22947794       0.00000000
Si      -1.43945445       2.37552183       2.63180934       0.00000000
