10
Lattice="16.28999089631971 0.0 0.0 0.0 16.28999089631971 0.0 0.0 0.0 34.395419527814205" Properties=species:S:1:pos:R:3:initial_magmoms:R:1 pbc="T T T"
Si       1.34052039       1.36081773       1.38443361       0.00000000
Si      -1.35171162       1.30394934      -1.43067140       0.00000000
Si      -1.37658645      -1.35588186       1.38278263       0.00000000
Si       1.35123921      -1.43693764      -1.53066238       0.00000000
Si      -2.20749048      -0.40335669      -2.89719457       0.00000000
Si       2.68903917       2.70588303      -0.00059848       0.00000000
Si      -0.42378435      -2.37356540      -2.95841845       0.00000000
Si       2.70671382      -2.72057498      -0.00991964       0.00000000
Si      -2.73313620       2.69581581       0.01663707       0.00000000
Si      -2.72528442      -2.71274831       0.02113256       0.00000000
