10
Lattice="16.28999089631971 0.0 0.0 0.0 16.28999089631971 0.0 0.0 0.0 34.395419527814205" Properties=species:S:1:pos:R:3:initial_magmoms:R:1 pbc="T T T"
Si      -1.35697329       1.18696270      -1.43680066       0.00000000
Si      -1.25393904      -1.28153986       1.50535077       0.00000000
Si       1.37455020      -1.52186623      -1.37117417       0.00000000
Si       0.79444701       1.97044003       1.26272535       0.00000000
Si       0.53989947      -1.18842622       3.22894060       0.00000000
Si      -2.68182270       2.53145134      -0.07708018       0.00000000
Si       0.54815850       1.18475541       3.48305410       0.00000000
Si       0.00943191       2.55021742      -2.77134369       0.00000000
Si      -2.61920394      -2.81205052       0.09269571       0.00000000
Si       2.72572425       2.73962125       0.06387233       0.00000000
