10
Lattice="16.28999089631971 0.0 0.0 0.0 16.28999089631971 0.0 0.0 0.0 34.395419527814205" Properties=species:S:1:pos:R:3:initial_magmoms:R:1 pbc="T T T"
Si       2.25072414      -0.56350368      -0.05620215       0.00000000
Si      -1.03309551       1.83954825      -1.02684143       0.00000000
Si      -0.73564011      -2.21053508      -0.48514766       0.00000000
Si      -0.20694816       0.38139777       2.35402383       0.00000000
Si      -2.12059962      -1.02832254       2.62313374       0.00000000
Si       2.37278511      -2.21624147       1.62625074       0.00000000
Si       0.82117890       3.14413290      -1.78175252       0.00000000
Si       1.66239450      -0.72094653       3.25260467       0.00000000
Si      -2.69793351      -2.46478777       0.72808265       0.00000000
Si       0.66078756      -3.59042093       0.92833289       0.00000000
