10
Lattice="16.28999089631971 0.0 0.0 0.0 16.28999089631971 0.0 0.0 0.0 34.395419527814205" Properties=species:S:1:pos:R:3:initial_magmoms:R:1 pbc="T T T"
Si       1.33447680       1.87178616      -0.25954798       0.00000000
Si      -2.34729126       0.26125902       0.40239224       0.00000000
Si       0.47333853      -1.64085912      -1.68971032       0.00000000
Si      -0.65068776       2.18768184       2.67892314       0.00000000
Si       1.37438730       2.14695684      -2.61948782       0.00000000
Si       3.44849526       1.15399989       0.47930044       0.00000000
Si       2.81518893      -1.92854704      -1.44054977       0.00000000
Si      -2.37337155      -1.22383512       2.56851378       0.00000000
Si      -3.25363428      -0.76031946      -1.67065525       0.00000000
Si       2.58198129      -0.89308296       2.56865137       0.00000000
