10
Lattice="16.28999089631971 0.0 0.0 0.0 16.28999089631971 0.0 0.0 0.0 34.395419527814205" Properties=species:S:1:pos:R:3:initial_magmoms:R:1 pbc="T T T"
Si       1.03309551      -1.83954825       1.02684143       0.00000000
Si      -1.25652915      -0.49844142      -1.92397766       0.00000000
Si       1.85427441       1.30458465      -0.75491109       0.00000000
Si      -1.25553546       1.11366585       1.78632711       0.00000000
Si       0.49282137       2.68392411       2.27364169       0.00000000
Si       0.82614735      -1.45815048       3.38086526       0.00000000
Si       2.59133175       2.53294839       1.12356140       0.00000000
Si       0.43443801      -0.60338160      -3.74679833       0.00000000
Si       0.99038313       3.17540970      -1.88837838       0.00000000
Si      -2.43810801       1.35086454      -2.77065578       0.00000000
