10
Lattice="16.28999089631971 0.0 0.0 0.0 16.28999089631971 0.0 0.0 0.0 34.395419527814205" Properties=species:S:1:pos:R:3:initial_magmoms:R:1 pbc="T T T"
Si      -1.45754775       1.44489042       1.20157026       0.00000000
Si      -1.24023915      -2.05903971      -0.10012512       0.00000000
Si       0.60136164       0.71983881      -2.25565287       0.00000000
Si       2.26325115      -0.00446346       0.92028436       0.00000000
Si       2.68304445      -1.85197752      -0.66111473       0.00000000
Si       0.76939299      -3.26169783      -0.39200482       0.00000000
Si       2.34971847       2.29009707      -1.76833830       0.00000000
Si      -1.51093008       1.48902003      -3.14959033       0.00000000
Si       3.09262392       2.21001543       0.43475835       0.00000000
Si       2.22334065      -0.27963414       3.28022420       0.00000000
