10
Lattice="16.28999089631971 0.0 0.0 0.0 16.28999089631971 0.0 0.0 0.0 34.395419527814205" Properties=species:S:1:pos:R:3:initial_magmoms:R:1 pbc="T T T"
Si      -0.00680922      -1.87400160       1.55794140       0.00000000
Si       2.31449949       0.45263394      -0.64704699       0.00000000
Si      -1.04187582       2.09523609       0.79192058       0.00000000
Si      -0.89256168      -1.08348048      -2.21455032       0.00000000
Si       0.00490329      -0.67313538       3.58596526       0.00000000
Si       0.57039435       2.75061537       2.36169401       0.00000000
Si      -1.87533738      -3.08547098       0.73093747       0.00000000
Si       1.75197321       0.90130941       3.20837213       0.00000000
Si       3.44294037       0.79636923       1.38555146       0.00000000
Si       2.87484291      -1.66848696      -1.83599413       0.00000000
