10
Lattice="16.28999089631971 0.0 0.0 0.0 16.28999089631971 0.0 0.0 0.0 34.395419527814205" Properties=species:S:1:pos:R:3:initial_magmoms:R:1 pbc="T T T"
Si       1.34473950       1.35653346      -1.39033243       0.00000000
Si      -1.36963062      -1.35772263      -1.39115792       0.00000000
Si      -1.28519955       1.42783479       1.46933875       0.00000000
Si       1.47737268      -1.38346083       1.58108953       0.00000000
Si       2.70855459       2.71801908       0.00546887       0.00000000
Si       2.70870120      -2.71981098      -0.01403334       0.00000000
Si      -2.73126285      -2.70412371      -0.03099029       0.00000000
Si      -2.72502378       2.71484253      -0.00742941       0.00000000
Si      -2.79166617       0.05725935       2.65732281       0.00000000
Si       2.70176166       0.00302994      -2.75314850       0.00000000
