10
Lattice="16.28999089631971 0.0 0.0 0.0 16.28999089631971 0.0 0.0 0.0 34.395419527814205" Properties=species:S:1:pos:R:3:initial_magmoms:R:1 pbc="T T T"
Si      -1.04282064      -1.43700606       1.49496335       0.00000000
Si       1.32105384      -1.38839670      -1.37058944       0.00000000
Si      -1.40582700       1.33905429      -1.37519843       0.00000000
Si       1.77852591       0.86141520       1.38895661       0.00000000
Si      -2.27636460       0.34653717       2.62736438       0.00000000
Si       0.88542666      -2.56039704       2.64968702       0.00000000
Si       2.66949117      -0.02795364      -2.73787692       0.00000000
Si      -0.04419477       2.68545537      -2.73536606       0.00000000
Si       2.80280853       2.65971717       0.23688139       0.00000000
Si      -0.04543281      -2.74308939      -2.73694825       0.00000000
