10
Lattice="16.28999089631971 0.0 0.0 0.0 16.28999089631971 0.0 0.0 0.0 34.395419527814205" Properties=species:S:1:pos:R:3:initial_magmoms:R:1 pbc="T T T"
Si      -0.27789111       0.43755754       2.34631925       0.00000000
Si       0.70488459       2.43954805      -0.59916854       0.00000000
Si      -0.95566914      -1.16421439      -2.28303164       0.00000000
Si       2.02154013       1.11822379      -2.18634606       0.00000000
Si      -2.38188212       1.47190576       1.81659510       0.00000000
Si       3.40615755      -0.23300988      -0.71508117       0.00000000
Si      -2.75052482       0.40253567      -2.17389492       0.00000000
Si      -3.52918682       0.09255163       0.11725405       0.00000000
Si       0.74264481      -0.32008172      -3.63625139       0.00000000
Si       1.59063705       1.64902693       3.17332318       0.00000000
