10
Lattice="16.28999089631971 0.0 0.0 0.0 16.28999089631971 0.0 0.0 0.0 34.395419527814205" Properties=species:S:1:pos:R:3:initial_magmoms:R:1 pbc="T T T"
Si       2.11971996       0.81368550       0.39792083       0.00000000
Si       0.01013238      -1.94129559       1.31796442       0.00000000
Si       0.49736628      -0.61291125      -2.22779257       0.00000000
Si      -1.57301127       1.46531808       1.02333309       0.00000000
Si       1.88136468      -2.91885849       0.28173304       0.00000000
Si      -1.59956397      -0.04352688      -3.14412145       0.00000000
Si       1.81108962       1.79703135       2.49346294       0.00000000
Si       3.35077155      -1.16488161       0.68818394       0.00000000
Si      -0.51111504       1.93715793       3.12554791       0.00000000
Si       1.54271187      -2.71308321      -2.03080989       0.00000000
