10
Lattice="16.28999089631971 0.0 0.0 0.0 16.28999089631971 0.0 0.0 0.0 34.395419527814205" Properties=species:S:1:pos:R:3:initial_magmoms:R:1 pbc="T T T"
Si      -1.69531659       1.37704257       0.78985686       0.00000000
Si       0.80009964      -2.00301840       0.87065174       0.00000000
Si       1.83661605       1.43037603       0.28314325       0.00000000
Si      -0.57357090      -0.53396991      -2.25513694       0.00000000
Si      -1.09481832       3.34448361      -0.44755345       0.00000000
Si       1.22738634       3.20435703      -1.07963843       0.00000000
Si       3.53468565       0.15856686      -0.66744349       0.00000000
Si       2.89861002      -2.15399412      -0.27942854       0.00000000
Si      -0.94825719      -3.57327666       0.38333716       0.00000000
Si       1.29766140      -1.51153281      -3.29136832       0.00000000
