10
Lattice="16.28999089631971 0.0 0.0 0.0 16.28999089631971 0.0 0.0 0.0 34.395419527814205" Properties=species:S:1:pos:R:3:initial_magmoms:R:1 pbc="T T T"
Si      -0.96097968      -0.00076563      -2.31374677       0.00000000
Si       2.27778183      -0.77186907      -0.87013581       0.00000000
Si       0.79990416      -1.45122723       2.00834967       0.00000000
Si       0.39289851       2.51198316      -0.59868701       0.00000000
Si      -2.14464366       1.20379842       1.75086541       0.00000000
Si      -0.57783888       2.31378273      -2.69873492       0.00000000
Si       3.52137672       0.96166386       0.14542392       0.00000000
Si      -3.61299168       1.34594496      -0.28572291       0.00000000
Si       1.85637582       0.15216489       3.40730645       0.00000000
Si       2.64528423       2.58486462      -1.23974919       0.00000000
