10
Lattice="16.28999089631971 0.0 0.0 0.0 16.28999089631971 0.0 0.0 0.0 34.395419527814205" Properties=species:S:1:pos:R:3:initial_magmoms:R:1 pbc="T T T"
Si      -0.24636996       1.42019871       1.95053094       0.00000000
Si       2.23500429      -1.04498721      -0.14263788       0.00000000
Si      -1.97724762      -1.50092802       0.44848213       0.00000000
Si      -0.07736121       1.31848297      -2.31061678       0.00000000
Si      -1.63870884      -0.43833132       2.58337261       0.00000000
Si       3.21654195       0.16099407      -2.02386201       0.00000000
Si       0.98877042       3.40603442      -1.81614796       0.00000000
Si       1.42270344       0.06788043      -3.74745184       0.00000000
Si      -1.36811565      -3.76497738      -0.16203691       0.00000000
Si      -1.89288171       3.20051978       1.57778757       0.00000000
