10
Lattice="16.28999089631971 0.0 0.0 0.0 16.28999089631971 0.0 0.0 0.0 34.395419527814205" Properties=species:S:1:pos:R:3:initial_magmoms:R:1 pbc="T T T"
Si      -1.35487025       1.35353606      -1.35958290       0.00000000
Si      -1.35728117      -1.35777221       1.35576501       0.00000000
Si       1.35803770       1.35745869       1.35576501       0.00000000
Si       1.35644943      -1.35360197      -1.36199058       0.00000000
Si      -2.69605853      -0.00905640      -2.71789317       0.00000000
Si      -2.71433591      -0.00057521       2.71283705       0.00000000
Si      -0.00008578      -2.71450115       2.71335298       0.00000000
Si       2.71507941       0.00018112       2.71287144       0.00000000
Si       0.00062934       2.71484900       2.71311221       0.00000000
Si       2.71419975       2.71436030      -0.00151340       0.00000000
