10
Lattice="16.28999089631971 0.0 0.0 0.0 16.28999089631971 0.0 0.0 0.0 34.395419527814205" Properties=species:S:1:pos:R:3:initial_magmoms:R:1 pbc="T T T"
Si      -0.29714589       1.81780110      -1.42204502       0.00000000
Si       1.57301127      -1.46531808      -1.02333309       0.00000000
Si      -1.98871578      -1.33190298       0.14452963       0.00000000
Si       1.06189623       0.47183985       2.10221482       0.00000000
Si      -1.60780671      -1.91515014       2.40035448       0.00000000
Si       0.46139796      -1.49560119       3.33962513       0.00000000
Si      -0.63568467       0.75520440      -3.55693551       0.00000000
Si       3.38410089       0.33171327       1.47012984       0.00000000
Si       1.58314365      -3.40661367       0.29463133       0.00000000
Si       3.69273123      -0.65163258      -0.62541226       0.00000000
