10
Lattice="16.28999089631971 0.0 0.0 0.0 16.28999089631971 0.0 0.0 0.0 34.395419527814205" Properties=species:S:1:pos:R:3:initial_magmoms:R:1 pbc="T T T"
Si       0.98091864       0.86742621       1.98901943       0.00000000
Si      -2.33346105      -0.00902466       0.51479653       0.00000000
Si       0.59106636       1.43457885      -1.87197175       0.00000000
Si       0.76022172      -2.33399862      -0.03037117       0.00000000
Si      -0.69802650      -3.10112730       1.67038009       0.00000000
Si       3.27119490       0.45882414       1.71419988       0.00000000
Si      -3.42652005       0.33554142      -1.54579981       0.00000000
Si      -2.76115500      -1.97913726       1.72197325       0.00000000
Si       2.30306391       2.80875831      -1.17405391       0.00000000
Si      -0.18270864      -1.53414333      -3.50379455       0.00000000
