10
Lattice="16.28999089631971 0.0 0.0 0.0 16.28999089631971 0.0 0.0 0.0 34.395419527814205" Properties=species:S:1:pos:R:3:initial_magmoms:R:1 pbc="T T T"
Si      -1.35682668       1.35725655      -1.35724401       0.00000000
Si       1.35765747       1.35747809       1.35738159       0.00000000
Si      -1.35751086      -1.35765833       1.35824148       0.00000000
Si       1.35829278      -1.35790268      -1.35748478       0.00000000
Si      -0.00061902       2.71462080      -2.71342177       0.00000000
Si      -2.71450044       2.71434387      -0.00006879       0.00000000
Si      -2.71466334      -2.71500629       0.00010319       0.00000000
Si      -2.71520091       0.00150768      -2.71479759       0.00000000
Si       2.71503801       2.71532127       0.00003440       0.00000000
Si      -0.00019548      -2.71678190      -2.71373133       0.00000000
