10
Lattice="16.28999089631971 0.0 0.0 0.0 16.28999089631971 0.0 0.0 0.0 34.395419527814205" Properties=species:S:1:pos:R:3:initial_magmoms:R:1 pbc="T T T"
Si      -1.13474920      -1.17812538      -1.65865124       0.00000000
Si      -0.69711835       2.23036164      -0.05867862       0.00000000
Si       2.28848746      -0.55827459      -0.09895568       0.00000000
Si      -0.74225794      -0.46196811       2.32843362       0.00000000
Si       1.91284006       2.62801683       0.99629828       0.00000000
Si      -2.88273136       1.99500372       0.83942068       0.00000000
Si      -0.55980994      -2.84127411       2.36313862       0.00000000
Si       3.19483048       0.46330389       1.97409181       0.00000000
Si      -3.08907679      -0.02391372       2.18820342       0.00000000
Si       2.41958938      -2.93345596       0.12000569       0.00000000
