10
Lattice="16.28999089631971 0.0 0.0 0.0 16.28999089631971 0.0 0.0 0.0 34.395419527814205" Properties=species:S:1:pos:R:3:initial_magmoms:R:1 pbc="T T T"
Si       0.66095046       1.11050722       1.97323193       0.00000000
Si       0.24628851       0.78568462      -2.22032876       0.00000000
Si      -0.00825903      -2.37318163      -0.25411350       0.00000000
Si      -2.23603056       0.87185872      -0.04639945       0.00000000
Si       1.00504413       3.13196590       0.74283829       0.00000000
Si      -3.30216219      -1.21569273      -0.54086827       0.00000000
Si      -1.61300322       2.41610185      -2.16471133       0.00000000
Si       2.75678928       0.19731914       2.34924286       0.00000000
Si      -1.80209754      -2.46629527      -1.97770333       0.00000000
Si       2.44933182      -2.73499882      -0.17864991       0.00000000
