10
Lattice="16.28999089631971 0.0 0.0 0.0 16.28999089631971 0.0 0.0 0.0 34.395419527814205" Properties=species:S:1:pos:R:3:initial_magmoms:R:1 pbc="T T T"
Si      -1.71199755      -1.37417946      -0.69791785       0.00000000
Si      -0.71039061       1.49529494       1.62635393       0.00000000
Si       2.33432442      -0.26360315      -0.01227917       0.00000000
Si      -0.12206097       1.65273779      -1.68245289       0.00000000
Si       1.29753108       2.73129869       1.53806083       0.00000000
Si       2.89934307       1.05719168       1.83554698       0.00000000
Si       2.80973178      -0.11471255      -2.28815656       0.00000000
Si       1.41835401       3.24335855      -0.79099190       0.00000000
Si      -2.37278511       2.21624147      -1.62625074       0.00000000
Si      -0.84662388      -2.68107729      -2.37569295       0.00000000
