10
Lattice="16.28999089631971 0.0 0.0 0.0 16.28999089631971 0.0 0.0 0.0 34.395419527814205" Properties=species:S:1:pos:R:3:initial_magmoms:R:1 pbc="T T T"
Si       0.71039061      -1.49529494      -1.62635393       0.00000000
Si      -0.84833433      -1.12564552       1.86175631       0.00000000
Si      -1.86934266       1.10234430      -0.89858084       0.00000000
Si       2.00792169       1.23600375      -0.08829309       0.00000000
Si       0.58832964       0.15744285      -3.30880681       0.00000000
Si       3.60973368      -0.43810326       0.20919306       0.00000000
Si       2.12874462       1.74806361      -2.41734583       0.00000000
Si      -3.19018473      -0.83795760       1.61259575       0.00000000
Si      -1.66239450       0.72094653      -3.25260467       0.00000000
Si      -2.28913596       2.94985836       0.68281825       0.00000000
