10
Lattice="16.28999089631971 0.0 0.0 0.0 16.28999089631971 0.0 0.0 0.0 34.395419527814205" Properties=species:S:1:pos:R:3:initial_magmoms:R:1 pbc="T T T"
Si       0.84833433       1.12564552      -1.86175631       0.00000000
Si       0.23657967      -2.31098152      -0.32503690       0.00000000
Si      -2.34185040       0.28768792      -0.24916056       0.00000000
Si       0.98324811       0.71740183       2.06025239       0.00000000
Si       0.63330633       3.08254693       1.91985020       0.00000000
Si      -1.02100833       2.22798982      -2.76033715       0.00000000
Si      -2.81518893       1.92854704       1.44054977       0.00000000
Si       2.52685593      -2.71958359      -0.59985645       0.00000000
Si       1.55872494      -0.36964942      -3.48811023       0.00000000
Si       3.22571322      -0.20769913       2.15528698       0.00000000
