10
Lattice="16.28999089631971 0.0 0.0 0.0 16.28999089631971 0.0 0.0 0.0 34.395419527814205" Properties=species:S:1:pos:R:3:initial_magmoms:R:1 pbc="T T T"
Si      -1.06296919       0.03574026       2.09368475       0.00000000
Si      -1.57390504       0.36711144      -1.73820789       0.00000000
Si       2.06220933       1.26555381      -0.26095819       0.00000000
Si       0.48067676      -2.21914502      -0.89025714       0.00000000
Si       1.50451792      -1.37722013      -2.78128397       0.00000000
Si      -0.97472626      -2.27791934       2.43371806       0.00000000
Si      -0.04510483       0.25021440      -3.47493678       0.00000000
Si       3.24119808      -0.09575262      -1.79664574       0.00000000
Si       1.63215333       3.23713251      -1.51240184       0.00000000
Si       0.07178001       1.21386564       3.75233599       0.00000000
