10
Lattice="16.28999089631971 0.0 0.0 0.0 16.28999089631971 0.0 0.0 0.0 34.395419527814205" Properties=species:S:1:pos:R:3:initial_magmoms:R:1 pbc="T T T"
Si       1.35684297      -1.35850455       1.36195619       0.00000000
Si      -1.35881406       1.35863487       1.36285047       0.00000000
Si       1.36267479       1.36796904      -1.38299588       0.00000000
Si      -1.36559070      -1.36971207      -1.37928805       0.00000000
Si       2.71399545       2.71420722       0.00368031       0.00000000
Si      -2.71410948      -2.71477737       0.00574404       0.00000000
Si       2.71583622      -2.71443528      -0.00158219       0.00000000
Si      -2.71435383       2.71608057       0.00419624       0.00000000
Si       2.71461447       0.00037467       2.71971613       0.00000000
Si      -0.00045612      -2.71485882       2.71978492       0.00000000
