10
Lattice="16.28999089631971 0.0 0.0 0.0 16.28999089631971 0.0 0.0 0.0 34.395419527814205" Properties=species:S:1:pos:R:3:initial_magmoms:R:1 pbc="T T T"
Si      -1.34703639      -1.35568638       1.33660675       0.00000000
Si      -1.35330804       1.35837423      -1.35813829       0.00000000
Si       1.36127385      -1.35591444      -1.35703764       0.00000000
Si       1.37792223       1.36881612       1.38771837       0.00000000
Si      -2.57189778       0.00718389       2.74214196       0.00000000
Si       0.00514764      -2.52504774       2.83659183       0.00000000
Si      -2.71052568       2.71430496       0.00240768       0.00000000
Si      -2.71114470      -2.71445157       0.00137582       0.00000000
Si      -2.71147050       0.00047241      -2.71421286       0.00000000
Si       0.00272043      -2.71402803      -2.71431605       0.00000000
