10
Lattice="16.28999089631971 0.0 0.0 0.0 16.28999089631971 0.0 0.0 0.0 34.395419527814205" Properties=species:S:1:pos:R:3:initial_magmoms:R:1 pbc="T T T"
Si       1.35330804      -1.35837423       1.35813829       0.00000000
Si       1.35643572       1.35721764      -1.35638413       0.00000000
Si      -1.35816246      -1.35790182      -1.35607457       0.00000000
Si      -1.35721764       1.35593073       1.36054598       0.00000000
Si       0.00627165      -2.71406061       2.69474504       0.00000000
Si       2.71384884      -0.00029322      -2.71369693       0.00000000
Si      -0.00104256       2.71459818      -2.71359374       0.00000000
Si       2.71458189      -2.71428867       0.00110065       0.00000000
Si      -0.00122175      -2.71552671      -2.71362814       0.00000000
Si      -2.71583622      -0.00061902      -2.71362814       0.00000000
