10
Lattice="16.28999089631971 0.0 0.0 0.0 16.28999089631971 0.0 0.0 0.0 34.395419527814205" Properties=species:S:1:pos:R:3:initial_magmoms:R:1 pbc="T T T"
Si       0.85577886       1.70730603       1.46652318       0.00000000
Si      -1.75872542      -0.87663169       1.50790089       0.00000000
Si       0.02608029       1.48509414      -2.16612155       0.00000000
Si       1.78370613      -1.97020871      -0.06122388       0.00000000
Si       2.20749048       0.40335669       2.89719457       0.00000000
Si       2.37337155       1.22383512      -2.56851378       0.00000000
Si      -0.51779394      -2.30939162       2.91832713       0.00000000
Si       1.72268379       3.41151696       0.11040936       0.00000000
Si      -1.72618125      -2.79877580      -2.16251003       0.00000000
Si       3.55872969      -1.03358095       1.36653220       0.00000000
