10
Lattice="16.28999089631971 0.0 0.0 0.0 16.28999089631971 0.0 0.0 0.0 34.395419527814205" Properties=species:S:1:pos:R:3:initial_magmoms:R:1 pbc="T T T"
Si      -0.86389128       1.87082505      -1.13346729       0.00000000
Si       0.73705734       1.22836374       1.87847249       0.00000000
Si      -1.85427441      -1.30458465       0.75491109       0.00000000
Si       1.79432721      -0.84603744      -1.35211909       0.00000000
Si      -1.36145304       1.37933946       3.02855278       0.00000000
Si       3.33694134       0.96524766      -1.14323559       0.00000000
Si       0.73063908      -0.77833620      -3.50778443       0.00000000
Si      -0.82117890      -3.14413290       1.78175252       0.00000000
Si       0.60551559       3.62480193      -0.72701639       0.00000000
Si      -3.11080356      -1.80302607      -1.16906657       0.00000000
