10
Lattice="16.28999089631971 0.0 0.0 0.0 16.28999089631971 0.0 0.0 0.0 34.395419527814205" Properties=species:S:1:pos:R:3:initial_magmoms:R:1 pbc="T T T"
Si       1.96535592      -0.99909828       0.77754329       0.00000000
Si      -0.73705734      -1.22836374      -1.87847249       0.00000000
Si      -2.09851038       0.15097572       1.15008029       0.00000000
Si       0.63607563       2.31256098      -0.38801494       0.00000000
Si      -1.60094862       0.64246131      -3.01193978       0.00000000
Si      -0.13154175       2.39643819      -2.60548888       0.00000000
Si       3.53080863      -0.09453087      -0.77035464       0.00000000
Si      -1.35560493       0.07089408       3.35317693       0.00000000
Si      -2.89861002       2.15399412       0.27942854       0.00000000
Si      -1.06199397       3.58437015       0.56257180       0.00000000
