10
Lattice="16.28999089631971 0.0 0.0 0.0 16.28999089631971 0.0 0.0 0.0 34.395419527814205" Properties=species:S:1:pos:R:3:initial_magmoms:R:1 pbc="T T T"
Si       1.05647166       1.60339212       1.39895678       0.00000000
Si      -1.66985532      -1.12313034       1.41530837       0.00000000
Si       1.76974560      -1.81278378      -0.05365688       0.00000000
Si      -0.79990416       1.45122723      -2.00834967       0.00000000
Si       1.47787767       0.67935816      -2.87848548       0.00000000
Si       2.28534039      -1.49444460      -2.50374717       0.00000000
Si      -0.22740840      -2.43149427       2.84225130       0.00000000
Si       2.50085709       0.30618684       2.83854347       0.00000000
Si       0.69792876      -3.16289898      -2.14355814       0.00000000
Si       1.89359847       3.43096722       0.15312925       0.00000000
