10
Lattice="16.28999089631971 0.0 0.0 0.0 16.28999089631971 0.0 0.0 0.0 34.395419527814205" Properties=species:S:1:pos:R:3:initial_magmoms:R:1 pbc="T T T"
Si      -0.66386637      -1.94843061       1.36544874       0.00000000
Si       0.51559479       0.31833918      -2.45009029       0.00000000
Si      -1.76974560       1.81278378       0.05365688       0.00000000
Si       2.03602194       0.80848899       1.34493186       0.00000000
Si      -1.07181684      -1.35011520      -2.08990125       0.00000000
Si      -1.99715400      -0.61871049       2.89590818       0.00000000
Si       0.73111149       2.11897062       2.89220035       0.00000000
Si      -0.29186793       2.49214194      -2.82482859       0.00000000
Si      -0.71327394       3.41617590       1.45261366       0.00000000
Si      -3.43960092       0.68965344       1.46896525       0.00000000
