10
Lattice="16.28999089631971 0.0 0.0 0.0 16.28999089631971 0.0 0.0 0.0 34.395419527814205" Properties=species:S:1:pos:R:3:initial_magmoms:R:1 pbc="T T T"
Si       0.83712681       1.82757510      -1.24582753       0.00000000
Si      -1.05647166      -1.60339212      -1.39895678       0.00000000
Si      -1.28912544       1.39725846       1.44370039       0.00000000
Si       1.44438543      -1.29720528       1.43958669       0.00000000
Si      -2.64570777       2.62866843      -0.15027711       0.00000000
Si       1.66500090       0.80949897      -3.26188253       0.00000000
Si       0.71327394      -3.41617590      -1.45261366       0.00000000
Si       2.69342118       2.65491162       0.07837001       0.00000000
Si       2.74929588      -2.60768691      -0.10768180       0.00000000
Si      -2.72632698      -2.72652246       0.01635159       0.00000000
