10
Lattice="16.28999089631971 0.0 0.0 0.0 16.28999089631971 0.0 0.0 0.0 34.395419527814205" Properties=species:S:1:pos:R:3:initial_magmoms:R:1 pbc="T T T"
Si       1.37700999       1.76148657       0.70613836       0.00000000
Si       0.80946639      -1.97767116       1.10147953       0.00000000
Si      -2.37785130       0.49537890       0.36603626       0.00000000
Si       0.06797817       0.22470426      -2.46302297       0.00000000
Si       1.84709052      -1.36125756      -2.72150470       0.00000000
Si      -1.13785650      -3.31931556       0.83433016       0.00000000
Si       1.04791941       1.88359641       3.04846774       0.00000000
Si      -3.48793335      -0.33155037      -1.56327269       0.00000000
Si       0.93164139       3.64231368      -0.81255785       0.00000000
Si      -2.50748712       2.79814959       0.99320269       0.00000000
