10
Lattice="16.28999089631971 0.0 0.0 0.0 16.28999089631971 0.0 0.0 0.0 34.395419527814205" Properties=species:S:1:pos:R:3:initial_magmoms:R:1 pbc="T T T"
Si       1.35440436       1.33397181      -1.36710862       0.00000000
Si       1.35358986      -1.35928647       1.35762236       0.00000000
Si      -1.35948425       1.35653346       1.35652171       0.00000000
Si      -1.35329405      -1.36169739      -1.36839501       0.00000000
Si      -0.10436026       2.52639981      -2.74131647       0.00000000
Si       0.12132466      -2.64183238      -2.77303938       0.00000000
Si       2.71194780      -0.00140094       2.71493517       0.00000000
Si       2.71299036       2.71401174      -0.00292361       0.00000000
Si       2.71095411      -2.71772586      -0.00096307       0.00000000
Si      -0.00309510       2.71394658       2.71486638       0.00000000
