10
Lattice="16.28999089631971 0.0 0.0 0.0 16.28999089631971 0.0 0.0 0.0 34.395419527814205" Properties=species:S:1:pos:R:3:initial_magmoms:R:1 pbc="T T T"
Si      -1.35712859      -1.35701727       1.35731280       0.00000000
Si       1.35783515       1.35700587       1.35717522       0.00000000
Si       1.35740836      -1.35739031      -1.35734720       0.00000000
Si      -1.35784535       1.35790182      -1.35741599       0.00000000
Si       2.71345637      -0.00099369       2.71438484       0.00000000
Si      -0.00062934      -2.71484900      -2.71311221       0.00000000
Si       2.71357040      -0.00048870      -2.71462561       0.00000000
Si       2.71445006      -2.71466789      -0.00024077       0.00000000
Si       2.71449893       2.71498914       0.00013758       0.00000000
Si      -2.71496525      -2.71542421      -0.00027516       0.00000000
