10
Lattice="16.28999089631971 0.0 0.0 0.0 16.28999089631971 0.0 0.0 0.0 34.395419527814205" Properties=species:S:1:pos:R:3:initial_magmoms:R:1 pbc="T T T"
Si       1.45876461      -1.19242800       1.37420784       0.00000000
Si       1.79634228       0.79373025      -1.31551385       0.00000000
Si      -1.26300835       1.55000979       1.35558271       0.00000000
Si      -1.10759229      -1.69505595      -1.69103252       0.00000000
Si       0.22631371       1.11627225      -3.11589797       0.00000000
Si      -2.60465275      -2.55365298      -0.00824803       0.00000000
Si      -2.12543353       0.12316869      -3.04872368       0.00000000
Si       0.10436026      -2.52639981       2.74131647       0.00000000
Si      -2.61687025       0.18919206       2.74011263       0.00000000
Si       2.84018919      -2.58429447      -0.07310063       0.00000000
