10
Lattice="16.28999089631971 0.0 0.0 0.0 16.28999089631971 0.0 0.0 0.0 34.395419527814205" Properties=species:S:1:pos:R:3:initial_magmoms:R:1 pbc="T T T"
Si       1.18385946       1.79602137       0.92289841       0.00000000
Si       0.32909058      -0.12210984      -2.34232938       0.00000000
Si      -2.38523067       0.57629133       0.03869487       0.00000000
Si       1.04959728      -1.79911647       1.31449048       0.00000000
Si      -0.36017190       3.51897624       0.64880116       0.00000000
Si      -0.31366395      -3.55027518       0.52793559       0.00000000
Si       2.63692746      -0.49174623      -2.47949839       0.00000000
Si      -2.35584351       2.53474029       1.30021638       0.00000000
Si      -1.04791941      -1.88359641      -3.04846774       0.00000000
Si      -3.43924254      -0.94822461       1.46737821       0.00000000
