10
Lattice="16.28999089631971 0.0 0.0 0.0 16.28999089631971 0.0 0.0 0.0 34.395419527814205" Properties=species:S:1:pos:R:3:initial_magmoms:R:1 pbc="T T T"
Si       0.87179193      -2.10411414       0.41807656       0.00000000
Si       1.94818626       1.23367428      -0.34113396       0.00000000
Si      -0.79759098       1.00934469       2.05258220       0.00000000
Si      -0.62046981      -0.26345817      -2.36977694       0.00000000
Si       0.56860245       3.09567571      -0.84795075       0.00000000
Si      -1.31694876      -2.84278419       1.20473464       0.00000000
Si       1.71255141      -2.75028957      -1.70178312       0.00000000
Si      -3.30856416      -1.78347807       0.30801115       0.00000000
Si       1.07916363       0.92527200      -3.51277176       0.00000000
Si       2.71332756      -1.81771965       1.94485569       0.00000000
