10
Lattice="16.28999089631971 0.0 0.0 0.0 16.28999089631971 0.0 0.0 0.0 34.395419527814205" Properties=species:S:1:pos:R:3:initial_magmoms:R:1 pbc="T T T"
Si      -1.60181199       1.67410701      -0.29748615       0.00000000
Si      -0.56501865      -1.32079483      -1.84782616       0.00000000
Si       2.33986302      -0.13916547      -0.13723780       0.00000000
Si      -0.51241824      -1.63240950       1.67172151       0.00000000
Si       2.42810595      -2.45282507       0.20279551       0.00000000
Si       0.81456516      -3.18279626      -1.34100937       0.00000000
Si      -2.89934307      -1.05719168      -1.83554698       0.00000000
Si      -3.60973368       0.43810326      -0.20919306       0.00000000
Si      -1.48098906       2.18616687      -2.62653889       0.00000000
Si       0.38553543       1.01504619       3.70961686       0.00000000
