10
Lattice="16.28999089631971 0.0 0.0 0.0 16.28999089631971 0.0 0.0 0.0 34.395419527814205" Properties=species:S:1:pos:R:3:initial_magmoms:R:1 pbc="T T T"
Si      -1.35407367       1.35571896       1.35892939       0.00000000
Si       1.36174626      -1.35905841       1.35772555       0.00000000
Si       1.35386190       1.36081773      -1.38452991       0.00000000
Si      -1.36313091      -1.35005004      -1.38686193       0.00000000
Si       2.61687025      -0.18919206      -2.74011263       0.00000000
Si      -2.71259451       2.71236645      -0.00017198       0.00000000
Si      -2.71075374      -2.71627605      -0.00543448       0.00000000
Si      -2.71197549      -0.00146610       2.71586384       0.00000000
Si       0.00293220       2.71342530       2.71603582       0.00000000
Si       2.71891733       2.71309950      -0.00282043       0.00000000
