10
Lattice="16.28999089631971 0.0 0.0 0.0 16.28999089631971 0.0 0.0 0.0 34.395419527814205" Properties=species:S:1:pos:R:3:initial_magmoms:R:1 pbc="T T T"
Si      -1.33690401      -1.34555400       1.38644574       0.00000000
Si      -1.35283563       1.35930276      -1.35934213       0.00000000
Si       1.36122498      -1.35503478      -1.35831027       0.00000000
Si       1.36244673       1.35601218       1.38087368       0.00000000
Si      -2.71176372       2.71497285       0.00168538       0.00000000
Si      -2.71169856       0.00122175      -2.71579505       0.00000000
Si      -2.71482624      -2.71437012      -0.00127263       0.00000000
Si       0.00353493      -2.71381626      -2.71572626       0.00000000
Si       0.00296478       2.71619460      -2.71562308       0.00000000
Si       2.71833404       0.00083079      -2.71565747       0.00000000
