10
Lattice="16.28999089631971 0.0 0.0 0.0 16.28999089631971 0.0 0.0 0.0 34.395419527814205" Properties=species:S:1:pos:R:3:initial_magmoms:R:1 pbc="T T T"
Si       0.00965997       2.21798124       0.80708897       0.00000000
Si       1.46644602      -1.14373719      -1.50493803       0.00000000
Si      -0.33699123      -1.12632318       2.11758958       0.00000000
Si      -1.19391039       1.64353068      -1.51532545       0.00000000
Si      -2.56837914      -0.47170953       2.53797063       0.00000000
Si       2.22729002       2.49784344       1.44495238       0.00000000
Si       2.82521447      -2.54342286      -0.10552521       0.00000000
Si      -2.51801046       0.19279215      -3.01740866       0.00000000
Si       0.17899063      -2.63898000      -2.97527424       0.00000000
Si       2.67590033       0.63529371       2.90094570       0.00000000
