10
Lattice="16.28999089631971 0.0 0.0 0.0 16.28999089631971 0.0 0.0 0.0 34.395419527814205" Properties=species:S:1:pos:R:3:initial_magmoms:R:1 pbc="T T T"
Si       1.66413753      -1.59527970      -0.42726014       0.00000000
Si      -1.56545271      -0.90456741       1.54789793       0.00000000
Si       1.36896273       1.46616516       1.35270382       0.00000000
Si      -0.93092463      -0.16858521      -2.25135344       0.00000000
Si       0.46361340      -3.50235000      -0.07893753       0.00000000
Si      -3.53080863       0.09453087       0.77035464       0.00000000
Si       3.49078410       0.87633684       0.53350765       0.00000000
Si       3.26264265      -1.39325112       1.21670425       0.00000000
Si       2.62902681      -0.93128301      -2.53769547       0.00000000
Si      -2.89473300       2.40709185       0.38233970       0.00000000
