10
Lattice="16.28999089631971 0.0 0.0 0.0 16.28999089631971 0.0 0.0 0.0 34.395419527814205" Properties=species:S:1:pos:R:3:initial_magmoms:R:1 pbc="T T T"
Si      -1.54111545      -1.03169457       1.39920645       0.00000000
Si      -1.36306575       1.27687536      -1.42146030       0.00000000
Si       1.34379468      -1.43281953      -1.38682409       0.00000000
Si       1.12045878       1.50083028       1.62580360       0.00000000
Si      -2.59587666       2.44538964       0.15195905       0.00000000
Si       2.37443040      -0.35934111       2.69357560       0.00000000
Si       0.64772298      -1.99796850       2.97083723       0.00000000
Si      -3.32022780       0.55426725       1.65768817       0.00000000
Si      -2.59954191      -2.71593396       0.09592888       0.00000000
Si       2.66613543       2.73497697       0.16950072       0.00000000
