10
Lattice="16.28999089631971 0.0 0.0 0.0 16.28999089631971 0.0 0.0 0.0 34.395419527814205" Properties=species:S:1:pos:R:3:initial_magmoms:R:1 pbc="T T T"
Si      -1.72670742      -1.63862739       0.27726163       0.00000000
Si       1.77099408      -1.05246432      -1.36680595       0.00000000
Si      -1.25397162       1.86017139      -1.06777200       0.00000000
Si       0.90177109       0.66002193       2.35987105       0.00000000
Si       0.19067445      -3.00550500       1.28088614       0.00000000
Si      -1.27299834       0.21245418       3.22292140       0.00000000
Si      -2.07778950       2.08075428       1.99610489       0.00000000
Si      -2.37443040       0.35934111      -2.69357560       0.00000000
Si       0.32716836      -2.47914252      -2.66186300       0.00000000
Si      -1.01289591      -3.57995556      -1.04152828       0.00000000
