10
Lattice="16.28999089631971 0.0 0.0 0.0 16.28999089631971 0.0 0.0 0.0 34.395419527814205" Properties=species:S:1:pos:R:3:initial_magmoms:R:1 pbc="T T T"
Si       1.42778503      -1.24750449       1.39175984       0.00000000
Si      -1.26117180       1.47054872       1.38993000       0.00000000
Si       1.77271268       1.10100852      -1.16084296       0.00000000
Si      -1.69497450      -1.07132814      -1.33963840       0.00000000
Si       2.79794826      -2.51193429      -0.04373036       0.00000000
Si       0.07928343      -2.59138062       2.74724280       0.00000000
Si       3.48670250      -0.65303352      -1.30800784       0.00000000
Si      -2.63805147       0.12072519       2.74899697       0.00000000
Si      -2.66400144       2.73279315       0.02139396       0.00000000
Si      -2.74061331      -2.70290196      -0.00058128       0.00000000
