10
Lattice="16.28999089631971 0.0 0.0 0.0 16.28999089631971 0.0 0.0 0.0 34.395419527814205" Properties=species:S:1:pos:R:3:initial_magmoms:R:1 pbc="T T T"
Si      -1.35738054       1.35606105      -1.35741599       0.00000000
Si      -1.35682668      -1.35723393       1.35714083       0.00000000
Si       1.35827649       1.35716877       1.35717522       0.00000000
Si       1.35995436      -1.35604476      -1.35917016       0.00000000
Si       0.01949913       2.70588458      -2.71648296       0.00000000
Si       2.70845596      -0.01216863      -2.71465312       0.00000000
Si      -2.71365336      -0.00055386       2.71466000       0.00000000
Si      -2.71383255       2.71452449      -0.00130703       0.00000000
Si      -2.71412577      -2.71448415       0.00013758       0.00000000
Si       0.00122175       2.71436577       2.71424726       0.00000000
