10
Lattice="16.28999089631971 0.0 0.0 0.0 16.28999089631971 0.0 0.0 0.0 34.395419527814205" Properties=species:S:1:pos:R:3:initial_magmoms:R:1 pbc="T T T"
Si       1.54567665       1.23414669      -1.45630288       0.00000000
Si      -1.12045878      -1.50083028      -1.62580360       0.00000000
Si       1.25397162      -1.86017139       1.06777200       0.00000000
Si      -2.05192098       1.94414634      -0.20984657       0.00000000
Si      -0.82381788       0.22058289       3.06387689       0.00000000
Si      -2.66157423      -2.53252485      -0.22659715       0.00000000
Si      -0.47273580      -3.49879878       1.34503363       0.00000000
Si       0.22077837       2.49344514      -3.02170809       0.00000000
Si      -2.48352453      -0.22395492      -3.04726390       0.00000000
Si       2.59964684       3.05914797      -0.24781914       0.00000000
