10
Lattice="16.28999089631971 0.0 0.0 0.0 16.28999089631971 0.0 0.0 0.0 34.395419527814205" Properties=species:S:1:pos:R:3:initial_magmoms:R:1 pbc="T T T"
Si      -2.30783688       0.36963639       0.13716901       0.00000000
Si       0.80479116      -1.86830010       1.22681651       0.00000000
Si       1.28774079       1.96643106       0.45102739       0.00000000
Si       0.82381788      -0.22058289      -3.06387689       0.00000000
Si       2.97956059      -1.42073235       0.36376616       0.00000000
Si       2.07778950      -2.08075428      -1.99610489       0.00000000
Si       3.38355259       0.83145789       1.07860656       0.00000000
Si      -2.63692746       0.49174623       2.47949839       0.00000000
Si      -2.75320548       2.25046350      -1.38152719       0.00000000
Si      -0.52551540      -3.80643543       0.58747409       0.00000000
