10
Lattice="16.28999089631971 0.0 0.0 0.0 16.28999089631971 0.0 0.0 0.0 34.395419527814205" Properties=species:S:1:pos:R:3:initial_magmoms:R:1 pbc="T T T"
Si      -1.95542621       0.98153766       0.82459625       0.00000000
Si       0.43005600      -1.97157870       1.25144364       0.00000000
Si       1.58195448       1.81921833       0.14707490       0.00000000
Si      -0.21605590      -1.12464531      -2.13065985       0.00000000
Si      -1.72728476       3.25112562       0.14139965       0.00000000
Si       1.94618259      -2.13651495      -2.29169929       0.00000000
Si       1.60904475      -3.33288513      -0.28424391       0.00000000
Si       0.29626623       3.46740795       1.30585723       0.00000000
Si      -3.55393133       0.77950908      -0.81936814       0.00000000
Si      -1.63215333      -3.23713251       1.51240184       0.00000000
