10
Lattice="16.28999089631971 0.0 0.0 0.0 16.28999089631971 0.0 0.0 0.0 34.395419527814205" Properties=species:S:1:pos:R:3:initial_magmoms:R:1 pbc="T T T"
Si      -0.58696128       2.22426918      -0.04825680       0.00000000
Si       2.00904637      -0.22071321       1.19403766       0.00000000
Si      -1.93922676      -1.21665123       0.55992335       0.00000000
Si       0.76882284      -0.29919843      -2.22524731       0.00000000
Si       2.79643004       2.06454573       1.30568525       0.00000000
Si      -1.33227765      -3.43670130       0.47885330       0.00000000
Si      -2.57261454       2.45891034      -1.25106529       0.00000000
Si      -1.70359191       2.76731262       1.92057251       0.00000000
Si       3.39481061      -1.69684785       0.02651888       0.00000000
Si       1.36535191       3.55605813       0.14040218       0.00000000
