10
Lattice="16.28999089631971 0.0 0.0 0.0 16.28999089631971 0.0 0.0 0.0 34.395419527814205" Properties=species:S:1:pos:R:3:initial_magmoms:R:1 pbc="T T T"
Si      -0.84539398       1.11019608      -1.88139610       0.00000000
Si      -1.46120227      -1.86227280       0.16812490       0.00000000
Si       2.16223849      -1.01186964      -0.16103944       0.00000000
Si       0.21605590       1.12464531       2.13065985       0.00000000
Si       1.82510065      -2.20823982       1.84641594       0.00000000
Si       0.64611190      -0.84693339       3.38210349       0.00000000
Si      -2.37298615       2.56815108      -0.79914362       0.00000000
Si       0.08842049      -3.48970733       0.86177772       0.00000000
Si       1.11545938       1.75650183      -2.95508412       0.00000000
Si       2.15052598      -2.21273586      -2.18906330       0.00000000
