10
Lattice="16.28999089631971 0.0 0.0 0.0 16.28999089631971 0.0 0.0 0.0 34.395419527814205" Properties=species:S:1:pos:R:3:initial_magmoms:R:1 pbc="T T T"
Si       1.35321030       1.35865116       1.38646982       0.00000000
Si      -1.36263081      -1.35589815       1.38677938       0.00000000
Si      -1.35786598       1.44021519      -1.40161413       0.00000000
Si       1.31129613      -1.49874516      -1.46827937       0.00000000
Si       2.71423980       2.70433548      -0.00909071       0.00000000
Si       2.71067229      -2.71130760       0.01664739       0.00000000
Si      -2.72802922       2.70464499       0.03387607       0.00000000
Si      -2.72768624      -2.70817992       0.00506989       0.00000000
Si       2.70953199       0.00066789       2.74773810       0.00000000
Si      -0.00573408      -2.71381626       2.74791007       0.00000000
