10
Lattice="16.28999089631971 0.0 0.0 0.0 16.28999089631971 0.0 0.0 0.0 34.395419527814205" Properties=species:S:1:pos:R:3:initial_magmoms:R:1 pbc="T T T"
Si      -1.35710906      -1.35586557       1.35734720       0.00000000
Si       1.35749142      -1.35729909      -1.35724401       0.00000000
Si      -1.35771179       1.35777150      -1.35727841       0.00000000
Si       1.35774066       1.35796698       1.35775994       0.00000000
Si      -0.00235636       2.71358820      -2.71503835       0.00000000
Si      -2.71471766       0.00006516      -2.71438484       0.00000000
Si      -2.71479911      -2.71464705      -0.00006879       0.00000000
Si       2.71510491      -2.71505430       0.00027516       0.00000000
Si       2.71517007      -0.00047241      -2.71500396       0.00000000
Si       0.00110227      -2.71471221      -2.71558868       0.00000000
