10
Lattice="16.28999089631971 0.0 0.0 0.0 16.28999089631971 0.0 0.0 0.0 34.395419527814205" Properties=species:S:1:pos:R:3:initial_magmoms:R:1 pbc="T T T"
Si       1.35826020      -1.35601218      -1.35947972       0.00000000
Si      -1.35752715       1.35930276      -1.35951411       0.00000000
Si       1.35571896       1.36744776       1.36219696       0.00000000
Si      -1.35459821      -1.36519974       1.37640227       0.00000000
Si      -2.71286234      -2.71494027       0.00113505       0.00000000
Si      -0.00016290      -2.71371852      -2.71699889       0.00000000
Si       2.71611315      -2.71469592       0.00044714       0.00000000
Si       2.71735119       2.71384884       0.00202933       0.00000000
Si       2.71480995       0.00156384      -2.71693010       0.00000000
Si      -2.71526781       0.00133578      -2.71727406       0.00000000
