10
Lattice="16.28999089631971 0.0 0.0 0.0 16.28999089631971 0.0 0.0 0.0 34.395419527814205" Properties=species:S:1:pos:R:3:initial_magmoms:R:1 pbc="T T T"
Si      -1.35685926      -1.35762489      -1.35758797       0.00000000
Si       1.35765747       1.35782037      -1.35738159       0.00000000
Si      -1.35967743       1.35910728       1.35972048       0.00000000
Si       1.36042677      -1.36010097       1.36178421       0.00000000
Si      -0.00120546      -2.70650205       2.72195184       0.00000000
Si      -2.71445157      -2.71464705       0.00024077       0.00000000
Si      -2.71352141       2.71621089      -0.00024077       0.00000000
Si       0.00058644      -2.71515204      -2.71479759       0.00000000
Si       2.71480995       2.71516833       0.00075670       0.00000000
Si      -2.71507711       0.00024435      -2.71500396       0.00000000
