10
Lattice="16.28999089631971 0.0 0.0 0.0 16.28999089631971 0.0 0.0 0.0 34.395419527814205" Properties=species:S:1:pos:R:3:initial_magmoms:R:1 pbc="T T T"
Si       0.48301479      -1.62070839      -1.59739297       0.00000000
Si      -1.65895731       1.28671452      -1.10213304       0.00000000
Si      -0.44670438      -1.08872586       2.06565247       0.00000000
Si       2.04027363       1.18139967       0.32111582       0.00000000
Si      -1.53158580       3.25611036       0.17101412       0.00000000
Si      -1.73239263       0.55946376       3.22443480       0.00000000
Si      -1.15067673       2.67286320       2.42683897       0.00000000
Si       2.03014125       3.12269526      -0.99684861       0.00000000
Si       1.66558734      -1.85790708       2.95958992       0.00000000
Si       1.66459365      -3.47001435      -0.75071485       0.00000000
