10
Lattice="16.28999089631971 0.0 0.0 0.0 16.28999089631971 0.0 0.0 0.0 34.395419527814205" Properties=species:S:1:pos:R:3:initial_magmoms:R:1 pbc="T T T"
Si       1.35090816       1.30256469       1.51944400       0.00000000
Si      -1.32584250      -1.49781663       1.38732768       0.00000000
Si      -1.98304626       0.96961338      -1.07853777       0.00000000
Si       1.48508889      -0.91298934      -1.99803104       0.00000000
Si      -2.88767883      -1.14732099      -1.92394326       0.00000000
Si       2.03966240       3.16146546       0.25516652       0.00000000
Si       1.76512703       2.53998567      -2.22947794       0.00000000
Si      -2.48784078      -2.92025943      -0.14972334       0.00000000
Si       1.47040998      -3.27956796      -1.54535267       0.00000000
Si      -0.01925507       2.56699449       2.95493420       0.00000000
