10
Lattice="16.28999089631971 0.0 0.0 0.0 16.28999089631971 0.0 0.0 0.0 34.395419527814205" Properties=species:S:1:pos:R:3:initial_magmoms:R:1 pbc="T T T"
Si       1.34869797       1.35686645       1.36165007       0.00000000
Si      -1.36641660      -1.35265644       1.35975832       0.00000000
Si      -1.24093148       1.43275993      -1.41042624       0.00000000
Si       1.30391676      -1.33620354      -1.47165356       0.00000000
Si      -0.67105026      -2.13169311      -2.69408211       0.00000000
Si      -2.38504008      -0.37765107      -2.54691723       0.00000000
Si       0.51779394       2.30939162      -2.91832713       0.00000000
Si       2.30150007       0.33918291      -2.97955101       0.00000000
Si       2.70646947       0.00279545       2.71996034       0.00000000
Si      -2.71555019       2.71289492      -0.00578187       0.00000000
