10
Lattice="16.28999089631971 0.0 0.0 0.0 16.28999089631971 0.0 0.0 0.0 34.395419527814205" Properties=species:S:1:pos:R:3:initial_magmoms:R:1 pbc="T T T"
Si      -1.30391676       1.33620354       1.47165356       0.00000000
Si       1.40838453      -1.39027005       1.43437234       0.00000000
Si      -1.97496702      -0.79548957      -1.22242855       0.00000000
Si       0.99758331       1.67538645      -1.50789745       0.00000000
Si       1.48173840       0.16286742      -3.44367274       0.00000000
Si      -2.66372125      -2.65439034       0.04184893       0.00000000
Si      -2.54484823       2.76896347       0.06122732       0.00000000
Si       2.77260687       2.61201420      -0.08014137       0.00000000
Si      -2.67033336      -0.01645290       2.83141188       0.00000000
Si       0.04478121       2.69306999       2.83330363       0.00000000
