10
Lattice="16.28999089631971 0.0 0.0 0.0 16.28999089631971 0.0 0.0 0.0 34.395419527814205" Properties=species:S:1:pos:R:3:initial_magmoms:R:1 pbc="T T T"
Si      -1.35644943       1.35360197       1.36199058       0.00000000
Si       1.36641660       1.35265644      -1.35975832       0.00000000
Si       1.35742452      -1.36168110       1.36040839       0.00000000
Si      -1.36355113      -1.37350764      -1.35407275       0.00000000
Si      -2.71131967       2.70713803       0.00240768       0.00000000
Si       2.71511457       2.70952289       0.00189175       0.00000000
Si       0.00158828       2.71106066       2.71775559       0.00000000
Si      -2.71205272      -2.71738377       0.00141021       0.00000000
Si       0.00661211      -2.63793744      -2.78956295       0.00000000
Si      -2.71373059      -0.00417024       2.71775559       0.00000000
