10
Lattice="16.28999089631971 0.0 0.0 0.0 16.28999089631971 0.0 0.0 0.0 34.395419527814205" Properties=species:S:1:pos:R:3:initial_magmoms:R:1 pbc="T T T"
Si       1.35673546       1.35695700      -1.35707204       0.00000000
Si      -1.35722427       1.35773892       1.35786313       0.00000000
Si       1.35821785      -1.35786924       1.35741599       0.00000000
Si      -1.35947148      -1.35927018      -1.35755357       0.00000000
Si      -2.71274179       0.00125433      -2.71607022       0.00000000
Si      -2.71441966       2.71446786       0.00027516       0.00000000
Si      -2.71482691      -2.71508688       0.00020637       0.00000000
Si      -2.71582060      -0.00039096       2.71417847       0.00000000
Si       2.71507711      -0.00024435       2.71500396       0.00000000
Si       0.00062554      -2.71489140       2.71524473       0.00000000
