10
Lattice="16.28999089631971 0.0 0.0 0.0 16.28999089631971 0.0 0.0 0.0 34.395419527814205" Properties=species:S:1:pos:R:3:initial_magmoms:R:1 pbc="T T T"
Si       1.35638522       1.35645465      -1.35738159       0.00000000
Si       1.35384398      -1.35710361       1.35996125       0.00000000
Si      -1.35877997      -1.35822762      -1.35690006       0.00000000
Si      -1.35983841       1.35591462       1.36058037       0.00000000
Si      -0.02570562      -2.68837128       2.72876213       0.00000000
Si      -0.00065649       2.71373222      -2.71448803       0.00000000
Si       2.71436849       2.71420789      -0.00065351       0.00000000
Si       2.71399382      -0.00071676      -2.71466000       0.00000000
Si      -2.71519344       2.71410526       0.00017198       0.00000000
Si       2.71352141      -2.71621089       0.00024077       0.00000000
