10
Lattice="16.28999089631971 0.0 0.0 0.0 16.28999089631971 0.0 0.0 0.0 34.395419527814205" Properties=species:S:1:pos:R:3:initial_magmoms:R:1 pbc="T T T"
Si       1.69831395       0.84413267      -1.35321975       0.00000000
Si      -1.79485568       1.56675006       0.10913673       0.00000000
Si      -1.05397019      -1.82500128      -1.20848374       0.00000000
Si       0.95566914       1.16421439       2.28303164       0.00000000
Si       0.33848014       2.16935626      -2.76504932       0.00000000
Si      -2.37886847      -0.56570283      -2.77388895       0.00000000
Si      -2.57351768       1.25676603       2.40028569       0.00000000
Si       2.97720927       2.28243818       0.09668558       0.00000000
Si      -0.98567011       3.50820530      -1.18588594       0.00000000
Si      -3.67894079       0.73448352      -1.27882241       0.00000000
