10
Lattice="16.28999089631971 0.0 0.0 0.0 16.28999089631971 0.0 0.0 0.0 34.642051614445585" Properties=species:S:1:pos:R:3:initial_magmoms:R:1 pbc="T T T"
Si       1.33771851       0.38258694      -1.90908989       0.00000000
Si      -2.03792689       0.91331744      -0.78093621       0.00000000
Si      -0.57603069      -2.28014388       0.39616672       0.00000000
Si       0.97438635       1.09952354       1.88355868       0.00000000
Si       1.34715042      -1.71564651      -2.95829429       0.00000000
Si       1.48206420      -3.28587219       0.78918102       0.00000000
Si      -3.63929093       0.67515542       0.97458538       0.00000000
Si      -1.88252942       3.27333608      -0.86168687       0.00000000
Si       1.57882680       3.33957122       1.20197594       0.00000000
Si      -1.97301711      -2.47717143       2.26971385       0.00000000
