10
Lattice="16.28999089631971 0.0 0.0 0.0 16.28999089631971 0.0 0.0 0.0 34.642051614445585" Properties=species:S:1:pos:R:3:initial_magmoms:R:1 pbc="T T T"
Si       1.36889757      -1.27752973       1.29020929       0.00000000
Si      -1.33615467      -1.37165288      -1.32145644       0.00000000
Si       1.37896479       1.34065560      -1.32481672       0.00000000
Si      -1.26338724       1.36487883       1.41291151       0.00000000
Si      -0.26798679      -2.45703929       2.50347854       0.00000000
Si       2.27468673       0.44664411       2.75605388       0.00000000
Si       0.54973863       2.29860534       2.75359430       0.00000000
Si      -2.66712912       2.70246702       0.03720558       0.00000000
Si      -2.69097768      -0.01881495      -2.68053417       0.00000000
Si       0.02484225       2.69621166      -2.68098451       0.00000000
