10
Lattice="16.28999089631971 0.0 0.0 0.0 16.28999089631971 0.0 0.0 0.0 34.642051614445585" Properties=species:S:1:pos:R:3:initial_magmoms:R:1 pbc="T T T"
Si       1.26338724      -1.36487883      -1.41291151       0.00000000
Si      -1.40374188       1.33758819      -1.37570592       0.00000000
Si      -1.88792955      -1.15500010       0.98421588       0.00000000
Si       1.81312587       0.93372651       1.34068279       0.00000000
Si      -0.46275003      -2.40832663       2.42633065       0.00000000
Si       2.63228481      -2.64240856      -0.12270222       0.00000000
Si       2.64235203      -0.02422323      -2.73772823       0.00000000
Si      -0.07299549       2.68569972      -2.73391760       0.00000000
Si      -0.07276743      -2.73653171      -2.73436795       0.00000000
Si      -2.62902681       2.84723136      -0.06027720       0.00000000
