10
Lattice="16.28999089631971 0.0 0.0 0.0 16.28999089631971 0.0 0.0 0.0 34.642051614445585" Properties=species:S:1:pos:R:3:initial_magmoms:R:1 pbc="T T T"
Si      -0.76606983      -1.81395666       1.24683593       0.00000000
Si      -1.64954169       1.72423134       0.23183711       0.00000000
Si       1.90764045       0.74619603       1.26414311       0.00000000
Si      -0.82608219      -0.09298332      -2.26088304       0.00000000
Si      -2.03123268      -0.56656620       2.73872789       0.00000000
Si       1.03131990       1.15370667      -3.15087248       0.00000000
Si       0.68826879       2.17517112       2.69793339       0.00000000
Si      -2.49059439      -2.71265967      -0.15620401       0.00000000
Si      -2.77312815       1.60963119      -1.92637920       0.00000000
Si      -3.38946682       0.73269162       1.41411903       0.00000000
