10
Lattice="16.28999089631971 0.0 0.0 0.0 16.28999089631971 0.0 0.0 0.0 34.642051614445585" Properties=species:S:1:pos:R:3:initial_magmoms:R:1 pbc="T T T"
Si       1.35822762       1.34431596       1.38680524       0.00000000
Si      -1.35360126      -1.37595114       1.38767129       0.00000000
Si       1.47936006      -1.32423039      -1.38843342       0.00000000
Si      -1.37689596       1.46761497      -1.47576954       0.00000000
Si      -2.70866862      -2.70612738       0.02304737       0.00000000
Si       2.70907587       2.70686043      -0.00442033       0.00000000
Si       2.71353933      -2.72329704       0.04349312       0.00000000
Si      -2.72025081       2.71955034       0.01696076       0.00000000
Si       0.00218286       2.70122409       2.74837720       0.00000000
Si      -2.71140534      -0.01448181       2.74872362       0.00000000
