10
Lattice="16.28999089631971 0.0 0.0 0.0 16.28999089631971 0.0 0.0 0.0 34.642051614445585" Properties=species:S:1:pos:R:3:initial_magmoms:R:1 pbc="T T T"
Si       1.35506736       1.33017624       1.36462392       0.00000000
Si       1.21937166      -1.42897509      -1.43379028       0.00000000
Si      -1.36353816      -1.38095217       1.36583640       0.00000000
Si      -1.34820927       1.44611217      -1.38480293       0.00000000
Si      -2.33781048      -0.45093978      -2.46609628       0.00000000
Si      -0.68826879      -2.17517112      -2.69793339       0.00000000
Si       2.70866862       2.70612738      -0.02304737       0.00000000
Si      -0.00273672       2.69164557       2.72567625       0.00000000
Si       2.68636761      -2.74359438      -0.00347114       0.00000000
Si       2.71210581      -0.02301777       2.72564161       0.00000000
