10
Lattice="16.28999089631971 0.0 0.0 0.0 16.28999089631971 0.0 0.0 0.0 34.642051614445585" Properties=species:S:1:pos:R:3:initial_magmoms:R:1 pbc="T T T"
Si      -1.66627152      -1.20738222       1.26533628       0.00000000
Si       0.67634451       1.95730866       1.27371967       0.00000000
Si      -1.38271149       1.14430734      -1.67376630       0.00000000
Si       1.31926194      -1.54083852      -1.63874317       0.00000000
Si       0.57000339      -1.34599383       2.29635360       0.00000000
Si      -3.28504140       0.68662350       1.27451643       0.00000000
Si      -2.78969508       2.39124168      -0.32078558       0.00000000
Si       2.78964621       2.56929138      -0.03581990       0.00000000
Si      -2.59188561      -2.76236046      -0.35688262       0.00000000
Si      -1.02693789       3.63200211       0.97226436       0.00000000
