10
Lattice="16.28999089631971 0.0 0.0 0.0 16.28999089631971 0.0 0.0 0.0 34.642051614445585" Properties=species:S:1:pos:R:3:initial_magmoms:R:1 pbc="T T T"
Si       1.17555156       1.16639658      -1.65817737       0.00000000
Si      -1.02811077       1.66993677       1.33486292       0.00000000
Si      -1.62067581      -1.26864891      -1.24631779       0.00000000
Si       0.85009365      -2.06272125       1.00777249       0.00000000
Si      -1.20024720      -3.27472983       0.04825640       0.00000000
Si       1.49066532       3.44730609       0.14657060       0.00000000
Si       2.66509287      -2.90079288      -0.36211357       0.00000000
Si      -0.04624731       2.80209177      -2.85710480       0.00000000
Si      -1.15290846      -1.66954581      -3.51170138       0.00000000
Si      -3.77352963      -0.36608517      -1.45576375       0.00000000
