10
Lattice="16.28999089631971 0.0 0.0 0.0 16.28999089631971 0.0 0.0 0.0 34.642051614445585" Properties=species:S:1:pos:R:3:initial_magmoms:R:1 pbc="T T T"
Si      -1.54127835       0.88016499      -1.52570609       0.00000000
Si       1.32445845      -1.85813514      -0.85718340       0.00000000
Si       0.92422944       2.21334415       0.46271414       0.00000000
Si      -1.56918312       0.31358250       1.84690737       0.00000000
Si      -1.24449084       2.65772557       1.32547492       0.00000000
Si       0.09560601       2.05967455      -2.73897534       0.00000000
Si       2.59401960       1.85451876       2.00813157       0.00000000
Si      -2.99942883       2.29375647      -0.18994248       0.00000000
Si       2.77337250      -0.69232500      -2.50486423       0.00000000
Si       2.69465922      -2.51152704       1.07574023       0.00000000
