10
Lattice="16.28999089631971 0.0 0.0 0.0 16.28999089631971 0.0 0.0 0.0 34.642051614445585" Properties=species:S:1:pos:R:3:initial_magmoms:R:1 pbc="T T T"
Si      -1.36378251       1.36713825      -1.25996676       0.00000000
Si       1.08695025       1.64054961       1.20609834       0.00000000
Si      -0.97252929      -1.58592924       1.38440108       0.00000000
Si       1.40649489      -1.36291914      -1.24669885       0.00000000
Si       0.73075311      -3.26062269       1.68585638       0.00000000
Si      -2.69074962       0.00447975      -2.61821308       0.00000000
Si       0.02086749      -2.71272483      -2.61651562       0.00000000
Si       0.01878237       2.72593602      -2.61883664       0.00000000
Si       2.73375522       0.00273672      -2.62105373       0.00000000
Si      -2.97512415       2.44716525       0.16385700       0.00000000
