10
Lattice="16.28999089631971 0.0 0.0 0.0 16.28999089631971 0.0 0.0 0.0 34.642051614445585" Properties=species:S:1:pos:R:3:initial_magmoms:R:1 pbc="T T T"
Si       2.10238740      -0.97267590       0.51935393       0.00000000
Si      -1.03044024      -0.07793136       2.16831651       0.00000000
Si       0.72648513       2.17378647      -0.75391539       0.00000000
Si      -1.88773407      -0.65933775      -1.35301537       0.00000000
Si      -0.80296668       2.20265235       2.66383669       0.00000000
Si      -0.48223287       2.33929287      -2.78068440       0.00000000
Si      -0.23429907       3.57506856       0.84855753       0.00000000
Si      -2.60648145       1.39867569      -2.28457530       0.00000000
Si       3.63820860      -0.08778681      -1.14218372       0.00000000
Si       1.78821846      -3.30563196       0.78211404       0.00000000
