10
Lattice="16.28999089631971 0.0 0.0 0.0 16.28999089631971 0.0 0.0 0.0 34.642051614445585" Properties=species:S:1:pos:R:3:initial_magmoms:R:1 pbc="T T T"
Si      -0.96078420       1.40128209       1.60247292       0.00000000
Si      -1.20871800       0.16550640      -2.02676900       0.00000000
Si      -0.72648513      -2.17378647       0.75391539       0.00000000
Si       2.41318431       0.05132979      -0.21582010       0.00000000
Si       1.37590227      -3.14646237       1.27326932       0.00000000
Si      -0.88402572       2.50964947      -2.54820146       0.00000000
Si       2.91172347      -2.26157328      -0.38826833       0.00000000
Si      -1.52945181       0.02886588       3.41775208       0.00000000
Si      -3.33296658      -0.77511078      -1.53065991       0.00000000
Si       0.68041701       2.88830075       2.37197724       0.00000000
