10
Lattice="16.28999089631971 0.0 0.0 0.0 16.28999089631971 0.0 0.0 0.0 34.642051614445585" Properties=species:S:1:pos:R:3:initial_magmoms:R:1 pbc="T T T"
Si      -0.07716573      -1.57050424       1.73584489       0.00000000
Si       1.85331330       0.88392798      -1.26523236       0.00000000
Si      -0.90578916      -1.72417384      -1.46584459       0.00000000
Si      -1.72494810       1.85196123      -0.00245959       0.00000000
Si       0.47732958       2.23845777      -2.72106539       0.00000000
Si      -2.27468673      -0.44664411      -2.75605388       0.00000000
Si      -2.24588601      -1.12612281       2.59860567       0.00000000
Si      -2.54267352      -2.90368340      -0.25257534       0.00000000
Si      -3.53807397       0.91823472      -1.34314238       0.00000000
Si      -0.75706146       3.64946499      -1.34057886       0.00000000
