10
Lattice="16.28999089631971 0.0 0.0 0.0 16.28999089631971 0.0 0.0 0.0 34.642051614445585" Properties=species:S:1:pos:R:3:initial_magmoms:R:1 pbc="T T T"
Si       1.89390798       1.18749213       0.69689454       0.00000000
Si       1.11666321      -0.64570302      -1.98900915       0.00000000
Si      -0.17689311      -2.32533234       0.42779493       0.00000000
Si      -2.08484307       1.15571034      -0.12183616       0.00000000
Si      -0.87291594      -0.25376562      -3.30873348       0.00000000
Si       1.47152457      -2.90279655      -1.19432004       0.00000000
Si       0.85183668       2.71456560       2.15771603       0.00000000
Si      -2.96956926       0.08542476      -2.08777369       0.00000000
Si       0.36567792      -2.70598077       2.63355952       0.00000000
Si       3.29028678      -0.33200649       1.89495592       0.00000000
