10
Lattice="16.28999089631971 0.0 0.0 0.0 16.28999089631971 0.0 0.0 0.0 34.642051614445585" Properties=species:S:1:pos:R:3:initial_magmoms:R:1 pbc="T T T"
Si       1.72219509      -0.26536410      -1.48042890       0.00000000
Si      -1.62872307       1.64463840      -0.43112057       0.00000000
Si      -0.99015507      -2.10751875      -0.36204428       0.00000000
Si       0.79474023       0.20248470       2.25557988       0.00000000
Si       2.98625022       1.53189531      -0.69862665       0.00000000
Si      -3.50373465       0.22172319      -0.03062359       0.00000000
Si       2.39490693      -2.44723041      -0.90987399       0.00000000
Si      -1.40587587       2.86765902       1.59156067       0.00000000
Si       0.35324865      -1.94522148       3.11425290       0.00000000
Si      -0.96573636       1.32054885       3.31361801       0.00000000
