10
Lattice="16.28999089631971 0.0 0.0 0.0 16.28999089631971 0.0 0.0 0.0 34.642051614445585" Properties=species:S:1:pos:R:3:initial_magmoms:R:1 pbc="T T T"
Si       1.23417927      -1.39906665       1.43192654       0.00000000
Si      -1.47936006       1.32423039       1.38843342       0.00000000
Si      -1.18858356      -1.74133584      -1.21798438       0.00000000
Si       1.92490785       0.71540793      -1.43375360       0.00000000
Si       2.62635525       2.58574428       0.04187534       0.00000000
Si       2.45110743      -2.76599313      -0.01899771       0.00000000
Si       2.59783146      -0.04857678       2.78171673       0.00000000
Si       0.47164437      -3.56544117      -1.30294514       0.00000000
Si      -0.12113244       2.66854635       2.77523866       0.00000000
Si      -0.11824911      -2.76021018       2.77672827       0.00000000
