10
Lattice="16.28999089631971 0.0 0.0 0.0 16.28999089631971 0.0 0.0 0.0 34.642051614445585" Properties=species:S:1:pos:R:3:initial_magmoms:R:1 pbc="T T T"
Si      -1.35474156       1.35563751      -1.36378905       0.00000000
Si      -1.35829278      -1.33571484       1.38734566       0.00000000
Si       1.36254447      -1.35894438      -1.36299228       0.00000000
Si       1.36498797       1.34319195       1.40005930       0.00000000
Si       0.14059899      -2.67323787       2.73204693       0.00000000
Si      -2.71109583       2.71033020      -0.00256351       0.00000000
Si      -2.71340901      -2.71876842      -0.00443419       0.00000000
Si      -2.71238274      -0.00153126      -2.72064969       0.00000000
Si       0.00281817       2.71365336      -2.72054576       0.00000000
Si       2.72052774       2.71451673      -0.00197460       0.00000000
