10
Lattice="16.28999089631971 0.0 0.0 0.0 16.28999089631971 0.0 0.0 0.0 34.642051614445585" Properties=species:S:1:pos:R:3:initial_magmoms:R:1 pbc="T T T"
Si       1.02253959      -1.15219170      -1.83966718       0.00000000
Si       1.17893988       2.07919044       0.35892650       0.00000000
Si      -2.07942339       0.99217503      -1.00967780       0.00000000
Si      -0.48557232      -0.54048591       2.46360552       0.00000000
Si       0.41809914      -3.39223937      -1.15808443       0.00000000
Si      -1.07064396       2.67444333      -2.30265846       0.00000000
Si      -2.27771178       1.17455787       2.73447468       0.00000000
Si       3.33672957      -0.34841052      -1.68280788       0.00000000
Si      -2.77600238       2.42960463       0.71927332       0.00000000
Si      -1.66287994      -3.36918251       0.57540480       0.00000000
