10
Lattice="16.28999089631971 0.0 0.0 0.0 16.28999089631971 0.0 0.0 0.0 34.642051614445585" Properties=species:S:1:pos:R:3:initial_magmoms:R:1 pbc="T T T"
Si       0.96537798       2.15019855      -0.03339496       0.00000000
Si      -2.12775093       0.77805927       0.67666357       0.00000000
Si      -0.52126371      -0.94824090      -2.12096080       0.00000000
Si       0.96967854      -1.52476029       1.56928582       0.00000000
Si       1.24576146       0.35948772       3.14466863       0.00000000
Si      -2.21811156      -2.53965987      -1.66673396       0.00000000
Si       0.03743442       3.30900399      -1.85733464       0.00000000
Si      -0.63820962      -3.28913019       1.97272737       0.00000000
Si       1.41154479      -1.68705756      -3.30530392       0.00000000
Si       0.44437491       3.56293251       1.77270406       0.00000000
