10
Lattice="16.28999089631971 0.0 0.0 0.0 16.28999089631971 0.0 0.0 0.0 34.642051614445585" Properties=species:S:1:pos:R:3:initial_magmoms:R:1 pbc="T T T"
Si      -1.35156501      -1.35312885       1.38842649       0.00000000
Si       1.36026387       1.36024173       1.38530870       0.00000000
Si       1.32538698      -1.28257686      -1.55897980       0.00000000
Si      -1.43759250       1.24060146      -1.53447053       0.00000000
Si       2.11077675       0.82622621      -2.92632802       0.00000000
Si       0.17244594       2.47954067      -2.86265589       0.00000000
Si      -2.71748151      -2.69317683       0.01387069       0.00000000
Si       2.71184517      -2.70586674      -0.00751040       0.00000000
Si      -2.71844262       2.71851497      -0.01374944       0.00000000
Si      -0.32115735      -2.30055525      -3.06870693       0.00000000
