10
Lattice="16.28999089631971 0.0 0.0 0.0 16.28999089631971 0.0 0.0 0.0 34.642051614445585" Properties=species:S:1:pos:R:3:initial_magmoms:R:1 pbc="T T T"
Si      -0.71030916       0.44932707      -2.19064509       0.00000000
Si       0.81316422       1.88747343       1.18728735       0.00000000
Si      -2.03874237      -0.81150753       1.09930342       0.00000000
Si       1.80879273      -1.70109139      -0.19945350       0.00000000
Si       2.14304078       0.53393733       2.53175998       0.00000000
Si      -0.60144309      -2.19088187       2.49006132       0.00000000
Si       1.17126729      -0.59203236      -3.29829067       0.00000000
Si       0.68820363      -3.50040239       0.97982638       0.00000000
Si       3.50262923      -0.70844721       1.09434614       0.00000000
Si       2.60237215       2.81046483      -0.08107873       0.00000000
