10
Lattice="16.28999089631971 0.0 0.0 0.0 16.28999089631971 0.0 0.0 0.0 34.642051614445585" Properties=species:S:1:pos:R:3:initial_magmoms:R:1 pbc="T T T"
Si       1.21948569       1.73070173       0.97254150       0.00000000
Si       0.96195708      -1.95426636       0.86414646       0.00000000
Si      -0.01705563      -0.58673715      -2.27213879       0.00000000
Si      -2.12794641       0.40265622       1.01473554       0.00000000
Si      -1.02853431      -3.14200284       1.30309614       0.00000000
Si       0.43140807       1.51121027      -3.26539625       0.00000000
Si      -1.38447081       1.59153626       2.99903337       0.00000000
Si       2.22118452       0.77492996       2.89718568       0.00000000
Si      -2.96261343      -1.76344530       1.43903163       0.00000000
Si      -0.45255249       3.35970173       1.63947065       0.00000000
