10
Lattice="16.28999089631971 0.0 0.0 0.0 16.28999089631971 0.0 0.0 0.0 34.642051614445585" Properties=species:S:1:pos:R:3:initial_magmoms:R:1 pbc="T T T"
Si      -1.35695700       1.35542574       1.36254194       0.00000000
Si       1.36231827      -1.36181142       1.36261122       0.00000000
Si       1.35363345       1.36016613      -1.37316319       0.00000000
Si      -1.37764530      -1.34946360      -1.36977866       0.00000000
Si       2.71515271      -0.06483420      -2.64639441       0.00000000
Si       0.03267774      -2.71813311      -2.67748220       0.00000000
Si      -2.71124244       2.71096551       0.00765590       0.00000000
Si       2.71761413       2.71231758       0.00356813       0.00000000
Si       0.00195480       2.71192662       2.72002613       0.00000000
Si      -2.71409319      -2.71893132       0.00540416       0.00000000
