10
Lattice="16.28999089631971 0.0 0.0 0.0 16.28999089631971 0.0 0.0 0.0 34.642051614445585" Properties=species:S:1:pos:R:3:initial_magmoms:R:1 pbc="T T T"
Si       1.35324984      -1.35834165       1.35738027       0.00000000
Si       1.35661218       1.35681039      -1.35661814       0.00000000
Si      -1.35739683       1.35545832       1.35876595       0.00000000
Si      -1.35770634      -1.35840681      -1.35689528       0.00000000
Si      -2.71474479      -2.71305063       0.00038106       0.00000000
Si       2.71455324      -0.00094482      -2.71365199       0.00000000
Si      -0.00079821       2.71432125      -2.71396377       0.00000000
Si      -2.71458189       2.71490769       0.00006928       0.00000000
Si       2.71404988      -2.71544526       0.00162818       0.00000000
Si       2.71498818       2.71451673       0.00055427       0.00000000
