10
Lattice="16.28999089631971 0.0 0.0 0.0 16.28999089631971 0.0 0.0 0.0 34.642051614445585" Properties=species:S:1:pos:R:3:initial_magmoms:R:1 pbc="T T T"
Si      -1.67141916      -1.17217953       1.21995517       0.00000000
Si      -1.50219864       1.20135492      -1.41208010       0.00000000
Si       1.21767750      -1.50975720      -1.40719557       0.00000000
Si       1.44116001       1.12091490       1.68838526       0.00000000
Si      -2.82466971       2.37355074       0.18703254       0.00000000
Si      -0.46056717      -1.66777020       3.31510762       0.00000000
Si      -0.15296310       2.54756052      -2.78390611       0.00000000
Si       2.55768357      -0.16623945      -2.78529179       0.00000000
Si       2.80907759       2.56259619       0.28787561       0.00000000
Si      -3.54584430       0.40715226       1.34771513       0.00000000
