10
Lattice="16.28999089631971 0.0 0.0 0.0 16.28999089631971 0.0 0.0 0.0 34.642051614445585" Properties=species:S:1:pos:R:3:initial_magmoms:R:1 pbc="T T T"
Si       1.36791758       1.44168129      -1.40050965       0.00000000
Si      -1.44116001      -1.12091490      -1.68838526       0.00000000
Si       0.23565114      -1.46075688       2.01654959       0.00000000
Si      -1.22087034       1.74969261       1.30981670       0.00000000
Si      -1.90172718      -2.78868510       1.62672237       0.00000000
Si      -2.89593846       2.57093667      -0.13243664       0.00000000
Si      -3.11257917      -2.29309443      -0.46843008       0.00000000
Si       0.78405399       0.02537982       3.87381494       0.00000000
Si       2.46499044       0.08563653      -3.09966858       0.00000000
Si       0.09977625       3.73047516       1.51818876       0.00000000
