10
Lattice="16.28999089631971 0.0 0.0 0.0 16.28999089631971 0.0 0.0 0.0 34.642051614445585" Properties=species:S:1:pos:R:3:initial_magmoms:R:1 pbc="T T T"
Si       1.35648459      -1.35741312      -1.35668743       0.00000000
Si      -1.35783992       1.35742941      -1.35641029       0.00000000
Si       1.35726651       1.35861858       1.35703385       0.00000000
Si      -1.35834328      -1.35707103       1.35886988       0.00000000
Si      -2.71282790      -0.00104256      -2.71413698       0.00000000
Si      -0.00133578       2.71345788      -2.71382520       0.00000000
Si      -0.00162900      -2.71414206      -2.71361735       0.00000000
Si       2.71399545      -0.00094482      -2.71424090       0.00000000
Si       0.00273672       2.71357191       2.71493374       0.00000000
Si       2.71386513       2.71539639       0.00058892       0.00000000
