10
Lattice="16.28999089631971 0.0 0.0 0.0 16.28999089631971 0.0 0.0 0.0 34.642051614445585" Properties=species:S:1:pos:R:3:initial_magmoms:R:1 pbc="T T T"
Si      -1.28964672       1.30952052       1.51023494       0.00000000
Si      -0.92483217      -1.80761985      -1.27180885       0.00000000
Si       1.12058910       1.79931099      -1.17927988       0.00000000
Si       1.44799816      -1.38666996       1.50202477       0.00000000
Si      -0.68820363       3.50040239      -0.97982638       0.00000000
Si      -2.72694600       2.68889486       0.11947704       0.00000000
Si      -2.59043580      -2.83869540       0.15275768       0.00000000
Si      -2.61809622      -0.04180014       2.88754133       0.00000000
Si       2.72664205      -2.78889687       0.03691113       0.00000000
Si       0.09650196       2.67412635       2.88677920       0.00000000
