10
Lattice="16.28999089631971 0.0 0.0 0.0 16.28999089631971 0.0 0.0 0.0 34.642051614445585" Properties=species:S:1:pos:R:3:initial_magmoms:R:1 pbc="T T T"
Si       1.99049139       1.18773648      -0.43894968       0.00000000
Si       1.12791960      -0.96713730       1.83260020       0.00000000
Si      -0.57257721      -1.64613708      -1.59332741       0.00000000
Si      -1.93407912       1.37855754       0.13593549       0.00000000
Si       2.15334252      -2.67898824       0.39737920       0.00000000
Si       1.02853431       3.14200284      -1.30309614       0.00000000
Si      -2.88362322       0.73616139       2.19232346       0.00000000
Si      -1.09941210       3.54465906      -0.28836060       0.00000000
Si       0.35989497      -3.64715181      -0.81703324       0.00000000
Si      -2.97038376      -1.44345690      -1.81687270       0.00000000
