10
Lattice="16.28999089631971 0.0 0.0 0.0 16.28999089631971 0.0 0.0 0.0 34.642051614445585" Properties=species:S:1:pos:R:3:initial_magmoms:R:1 pbc="T T T"
Si      -1.52748398       1.21313259      -1.30181439       0.00000000
Si       1.22528493      -1.50964317      -1.31542872       0.00000000
Si      -0.89810028      -1.68831189       1.39070594       0.00000000
Si       0.92561409       1.55497824       1.62221890       0.00000000
Si      -2.62455683       2.56917735       0.39734455       0.00000000
Si      -0.15407082       2.55388104      -2.67551107       0.00000000
Si       2.55603132      -0.16153164      -2.67364040       0.00000000
Si      -2.59390557      -2.64611502       0.02650118       0.00000000
Si       2.59188561       2.76236046       0.35688262       0.00000000
Si       2.62902681      -2.84723136       0.06027720       0.00000000
