10
Lattice="16.28999089631971 0.0 0.0 0.0 16.28999089631971 0.0 0.0 0.0 34.642051614445585" Properties=species:S:1:pos:R:3:initial_magmoms:R:1 pbc="T T T"
Si       1.35163828       1.35268902       1.36950499       0.00000000
Si      -1.35562355       1.35742941      -1.36171053       0.00000000
Si       1.35975559      -1.35666378      -1.36136411       0.00000000
Si      -1.34672921      -1.36801791       1.39160663       0.00000000
Si       2.67615863      -0.11626173       2.70738177       0.00000000
Si      -2.71155428       2.71391400       0.00017321       0.00000000
Si      -2.71262942      -2.71572219      -0.00315243       0.00000000
Si      -2.71352537       0.00083079      -2.71891758       0.00000000
Si       0.00137959      -2.71437012      -2.71853652       0.00000000
Si       0.00092600       2.71555929      -2.71857116       0.00000000
