10
Lattice="16.28999089631971 0.0 0.0 0.0 16.28999089631971 0.0 0.0 0.0 34.642051614445585" Properties=species:S:1:pos:R:3:initial_magmoms:R:1 pbc="T T T"
Si       1.40698359      -1.24693434      -1.35298072       0.00000000
Si      -0.49534632      -1.70461818       1.59530201       0.00000000
Si      -1.32452035       1.46895075      -1.33787678       0.00000000
Si       1.76275719       1.24076043       1.29304994       0.00000000
Si       0.11627802      -0.11833056       3.35089288       0.00000000
Si      -2.42674736      -2.58442479       0.36124752       0.00000000
Si       2.78969508      -2.39124168       0.32078558       0.00000000
Si       0.36960381       2.31230034       2.92884853       0.00000000
Si       0.04373865      -2.59972110      -2.71160811       0.00000000
Si      -2.67615863       0.11626173      -2.70738177       0.00000000
