10
Lattice="16.28999089631971 0.0 0.0 0.0 16.28999089631971 0.0 0.0 0.0 34.642051614445585" Properties=species:S:1:pos:R:3:initial_magmoms:R:1 pbc="T T T"
Si       0.67520258      -2.24780823      -0.07569293       0.00000000
Si       1.88748809       0.48167901      -1.33638717       0.00000000
Si       0.23146298       1.28963043       2.00730016       0.00000000
Si      -1.92367863       0.30437865      -1.40733413       0.00000000
Si       1.27586375      -1.10460861      -3.09197804       0.00000000
Si      -2.69694864       2.27333466      -0.30966547       0.00000000
Si       2.47806575       0.56907486       2.60577658       0.00000000
Si      -1.23940089      -3.40071669       0.94829205       0.00000000
Si      -3.19486878      -1.93334607       0.84464297       0.00000000
Si      -0.09037203       3.62367792       1.40283066       0.00000000
