10
Lattice="16.28999089631971 0.0 0.0 0.0 16.28999089631971 0.0 0.0 0.0 34.642051614445585" Properties=species:S:1:pos:R:3:initial_magmoms:R:1 pbc="T T T"
Si       1.35496962      -1.35042960      -1.36229944       0.00000000
Si      -1.36161757       1.36373364      -1.36070591       0.00000000
Si      -1.36267316      -1.36681571       1.35824632       0.00000000
Si       1.37881818       1.37085237       1.35544031       0.00000000
Si      -2.44037232       0.23438052       2.69737021       0.00000000
Si       2.70979263      -2.70326753      -0.00322171       0.00000000
Si      -2.72127993      -2.70538523      -0.00308314       0.00000000
Si      -0.00371412      -2.70892982      -2.71857116       0.00000000
Si       2.70956457       2.71896390      -0.00277137       0.00000000
Si       2.71168227       0.00584811      -2.71929865       0.00000000
