10
Lattice="16.28999089631971 0.0 0.0 0.0 16.28999089631971 0.0 0.0 0.0 34.642051614445585" Properties=species:S:1:pos:R:3:initial_magmoms:R:1 pbc="T T T"
Si       1.35968720      -1.35379674       1.36271515       0.00000000
Si      -1.35568908       1.36124423       1.36302692       0.00000000
Si      -1.36005316      -1.34149779      -1.38291840       0.00000000
Si       1.35916592       1.37686763      -1.37992879       0.00000000
Si      -2.71309691      -2.71305063       0.00242494       0.00000000
Si       2.71636727      -2.71006956       0.00138568       0.00000000
Si      -2.71154936       2.71929852       0.00183603       0.00000000
Si       0.00136836      -2.71192662       2.71967971       0.00000000
Si      -2.71343900       0.00244350       2.71981828       0.00000000
Si       2.71552019       2.71950703       0.00187067       0.00000000
