10
Lattice="10.86 0.0 0.0 0.0 10.86 0.0 0.0 0.0 10.86" Properties=species:S:1:pos:R:3:initial_magmoms:R:1 pbc="T T T"
Si       1.19185242      -1.18407666      -1.32501774       0.00000000
Si      -1.52314758      -1.18407666       1.38998226       0.00000000
Si       1.11980718       1.54567122       1.45102632       0.00000000
Si      -1.52314758       1.53092334      -1.32501774       0.00000000
Si       1.31080200      -0.24322056       2.93643540       0.00000000
Si       2.61855234      -2.55562950      -0.18409872       0.00000000
Si      -0.16564758      -2.54157666      -2.68251774       0.00000000
Si       2.54935242       0.17342334      -2.68251774       0.00000000
Si       0.22398750      -2.15536248       3.10576452       0.00000000
Si      -0.33456402       2.83554600       2.55349008       0.00000000
