10
Lattice="10.86 0.0 0.0 0.0 10.86 0.0 0.0 0.0 10.86" Properties=species:S:1:pos:R:3:initial_magmoms:R:1 pbc="T T T"
Si       1.18190466       1.50626028       1.20658944       0.00000000
Si       1.18190466      -1.20873972      -1.50841056       0.00000000
Si      -1.53309534       1.50626028      -1.50841056       0.00000000
Si       2.53940466       0.14876028       2.56408944       0.00000000
Si       2.53940466      -2.56623972      -0.15091056       0.00000000
Si       2.53940466       2.86376028      -0.15091056       0.00000000
Si       2.53940466       0.14876028      -2.86591056       0.00000000
Si      -2.96505150       0.04183272       2.42741634       0.00000000
Si      -0.17559534       2.86376028       2.56408944       0.00000000
Si      -0.22227162      -2.44626930      -2.96816832       0.00000000
