10
Lattice="10.86 0.0 0.0 0.0 10.86 0.0 0.0 0.0 10.86" Properties=species:S:1:pos:R:3:initial_magmoms:R:1 pbc="T T T"
Si      -1.08679278       1.54207656      -1.14540420       0.00000000
Si      -1.08679278      -1.17292344       1.56959580       0.00000000
Si       1.62820722      -1.17292344      -1.14540420       0.00000000
Si       1.35389448       1.74837312       1.47636270       0.00000000
Si      -2.44429278       0.18457656      -2.50290420       0.00000000
Si       2.87720496      -0.23823582       2.00260572       0.00000000
Si      -2.44429278      -2.53042344       0.21209580       0.00000000
Si       0.27070722      -2.53042344      -2.50290420       0.00000000
Si      -2.44429278       2.89957656       0.21209580       0.00000000
Si      -2.44429278       0.18457656       2.92709580       0.00000000
