10
Lattice="10.86 0.0 0.0 0.0 10.86 0.0 0.0 0.0 10.86" Properties=species:S:1:pos:R:3:initial_magmoms:R:1 pbc="T T T"
Si       0.80085984      -1.84516830      -0.80602920       0.00000000
Si       0.80085984       0.86983170       1.90897080       0.00000000
Si      -1.91414016       0.86983170      -0.80602920       0.00000000
Si       2.15835984      -0.48766830      -2.16352920       0.00000000
Si       2.15835984       2.22733170       0.55147080       0.00000000
Si      -0.55664016       2.22733170      -2.16352920       0.00000000
Si       3.51585984       0.86983170      -0.80602920       0.00000000
Si       0.80085984       0.86983170      -3.52102920       0.00000000
Si       0.80085984       3.58483170      -0.80602920       0.00000000
Si       2.15835984      -3.20266830       0.55147080       0.00000000
