10
Lattice="16.28999089631971 0.0 0.0 0.0 16.28999089631971 0.0 0.0 0.0 34.40785480372833" Properties=species:S:1:pos:R:3:initial_magmoms:R:1 pbc="T T T"
Si      -0.08505009       1.45586988       1.82489042       0.00000000
Si      -1.93166820       0.63617337      -1.15314549       0.00000000
Si      -0.00926901      -2.29267089       0.47475985       0.00000000
Si       1.95163974       0.45735804      -1.42458921       0.00000000
Si      -1.46644209       2.95643205      -0.97632343       0.00000000
Si      -1.03982328       0.07993503      -3.33088865       0.00000000
Si       0.08764020       3.49986482       0.72063851       0.00000000
Si       2.23591653      -2.68498296       1.08749527       0.00000000
Si       1.53251433       0.57357090       3.27349632       0.00000000
Si      -0.24503418      -3.25058805      -1.67105281       0.00000000
