10
Lattice="16.28999089631971 0.0 0.0 0.0 16.28999089631971 0.0 0.0 0.0 34.40785480372833" Properties=species:S:1:pos:R:3:initial_magmoms:R:1 pbc="T T T"
Si       0.88495425       1.71423742      -1.28854047       0.00000000
Si      -0.76242087       0.90385879       2.02318299       0.00000000
Si      -1.80165771      -0.96226007      -1.35112840       0.00000000
Si       1.74175938      -1.73605692       0.27054911       0.00000000
Si       2.18173599       0.31080343      -2.65745774       0.00000000
Si      -1.30495932      -1.25408469       3.03491212       0.00000000
Si      -0.55338759      -2.41631103      -2.67968523       0.00000000
Si       0.80910801      -3.60445476      -1.12283215       0.00000000
Si       1.72382409       3.48764827      -0.01101052       0.00000000
Si      -2.80945485       2.08639877       1.73150744       0.00000000
