10
Lattice="16.28999089631971 0.0 0.0 0.0 16.28999089631971 0.0 0.0 0.0 34.40785480372833" Properties=species:S:1:pos:R:3:initial_magmoms:R:1 pbc="T T T"
Si      -1.31551524      -0.24438423       1.93895252       0.00000000
Si       0.35153820      -2.20859985      -0.80060241       0.00000000
Si       2.06360091       0.99593704       0.73102969       0.00000000
Si      -0.86247405       0.98067983      -2.02837858       0.00000000
Si       2.59247205      -2.20136709      -1.58369122       0.00000000
Si      -2.17305342       1.86556892       2.49814929       0.00000000
Si       3.21188301       1.60082384      -1.31080237       0.00000000
Si      -0.67320054      -0.65427321      -3.76556333       0.00000000
Si       0.03438819      -3.83530296       0.88163296       0.00000000
Si      -1.00097163      -2.76531060      -2.70029555       0.00000000
