10
Lattice="16.28999089631971 0.0 0.0 0.0 16.28999089631971 0.0 0.0 0.0 34.40785480372833" Properties=species:S:1:pos:R:3:initial_magmoms:R:1 pbc="T T T"
Si      -1.35764118      -1.35741312       1.35573905       0.00000000
Si       1.35809730       1.35762489       1.35642721       0.00000000
Si       1.35425286      -1.35290079      -1.36502918       0.00000000
Si      -1.35821133       1.35400851      -1.36544207       0.00000000
Si      -2.69000028      -0.02976183      -2.70534318       0.00000000
Si      -2.71459818      -0.00035838       2.71350817       0.00000000
Si       0.00043983       2.71494027       2.71357699       0.00000000
Si       2.71529865       0.00021177       2.71354258       0.00000000
Si       0.00034209      -2.71642266       2.71302646       0.00000000
Si      -2.71521720       2.71554300       0.00006882       0.00000000
