10
Lattice="16.28999089631971 0.0 0.0 0.0 16.28999089631971 0.0 0.0 0.0 34.40785480372833" Properties=species:S:1:pos:R:3:initial_magmoms:R:1 pbc="T T T"
Si       1.35430173      -1.35933534      -1.35749385       0.00000000
Si      -1.36031274       1.35509994      -1.35701214       0.00000000
Si       1.35842310       1.35931905       1.35880135       0.00000000
Si      -1.36920708      -1.37704257       1.36151958       0.00000000
Si      -0.11305260       2.56445325       2.75180413       0.00000000
Si       0.08563653      -2.66667300       2.74918914       0.00000000
Si       2.71050939       2.71386513      -0.00268381       0.00000000
Si       2.71099809      -0.00149868      -2.71526297       0.00000000
Si      -0.00386073       2.71322982      -2.71522856       0.00000000
Si      -2.71810053       2.71433754       0.00519559       0.00000000
