10
Lattice="16.28999089631971 0.0 0.0 0.0 16.28999089631971 0.0 0.0 0.0 34.40785480372833" Properties=species:S:1:pos:R:3:initial_magmoms:R:1 pbc="T T T"
Si      -2.06858565      -0.49252815       0.89959387       0.00000000
Si      -0.50077089       0.63016236      -2.20994893       0.00000000
Si       1.36857177      -1.91870136      -0.17647799       0.00000000
Si       0.52287642       2.04248907       1.18080942       0.00000000
Si      -3.15633411       1.55742174       1.00763459       0.00000000
Si      -1.68226830      -1.33814205       3.04860646       0.00000000
Si       2.64976398       1.69349211       2.02418082       0.00000000
Si      -1.22494284       2.85785244      -2.13968805       0.00000000
Si       1.47747042       0.66668454      -3.45885154       0.00000000
Si       0.09796806       3.81225096      -0.39789266       0.00000000
