10
Lattice="16.28999089631971 0.0 0.0 0.0 16.28999089631971 0.0 0.0 0.0 34.40785480372833" Properties=species:S:1:pos:R:3:initial_magmoms:R:1 pbc="T T T"
Si      -1.45367073       1.25678979       1.31301135       0.00000000
Si       1.29655368      -1.44076905       1.30135053       0.00000000
Si       0.55364823       1.84803534      -1.34835650       0.00000000
Si      -1.12119183      -1.77951960      -1.07968537       0.00000000
Si      -1.97265384      -0.54648063      -2.85305072       0.00000000
Si       2.56991040       2.62029537      -0.12933576       0.00000000
Si      -0.18213849       0.98438841      -3.57554726       0.00000000
Si      -0.08646732       2.62040940       2.66760463       0.00000000
Si       2.62855440      -0.10101429       2.66898094       0.00000000
Si       0.70561764      -3.38165739      -1.51606396       0.00000000
