10
Lattice="16.28999089631971 0.0 0.0 0.0 16.28999089631971 0.0 0.0 0.0 34.40785480372833" Properties=species:S:1:pos:R:3:initial_magmoms:R:1 pbc="T T T"
Si       2.13102522       0.01280394       1.08126744       0.00000000
Si      -1.43524674       1.48789602       1.21676565       0.00000000
Si       1.34467434       0.23675886      -2.23031839       0.00000000
Si      -0.84400119      -1.09752246      -2.42830130       0.00000000
Si       0.66616326       2.79943650      -1.59370391       0.00000000
Si      -0.67145751      -2.56564242       2.27928080       0.00000000
Si       1.47294180      -3.15319014      -0.72321910       0.00000000
Si       3.60505845      -0.53168931      -0.66785683       0.00000000
Si      -0.08273691       2.04460677       3.11645878       0.00000000
Si      -1.10747565       3.59893341       0.15149787       0.00000000
