10
Lattice="16.28999089631971 0.0 0.0 0.0 16.28999089631971 0.0 0.0 0.0 34.40785480372833" Properties=species:S:1:pos:R:3:initial_magmoms:R:1 pbc="T T T"
Si       2.06405703       0.24728220      -1.13449642       0.00000000
Si      -1.32291090      -0.95439852      -1.74179540       0.00000000
Si       0.42490836      -1.76976189       1.57870208       0.00000000
Si      -1.05134031       2.02914756       0.77761795       0.00000000
Si      -3.42544491      -1.12181085      -0.69018755       0.00000000
Si       1.47957183       1.62404784      -2.93980876       0.00000000
Si      -0.59873895      -3.18208860      -1.81205628       0.00000000
Si      -0.09796806      -3.81225096       0.39789266       0.00000000
Si       2.86725177      -1.89954432      -1.69854470       0.00000000
Si      -0.73419030       3.65585067      -0.90461742       0.00000000
