10
Lattice="16.28999089631971 0.0 0.0 0.0 16.28999089631971 0.0 0.0 0.0 34.40785480372833" Properties=species:S:1:pos:R:3:initial_magmoms:R:1 pbc="T T T"
Si       1.26679185      -0.50743350      -1.88954281       0.00000000
Si      -2.24518554       0.39231207      -0.61273542       0.00000000
Si       1.05994143       1.91539449       0.98268888       0.00000000
Si       0.02267568      -1.77233571       1.62150547       0.00000000
Si       3.43461618      -0.33181101      -1.02972445       0.00000000
Si      -2.23591653       2.68498296      -1.08749527       0.00000000
Si       2.15932095       0.81790461       2.90949542       0.00000000
Si      -1.98118980      -1.38834783       2.82609073       0.00000000
Si       0.68478273      -2.71801908      -2.46965957       0.00000000
Si      -2.48095071      -0.56560509      -2.75854808       0.00000000
