10
Lattice="16.28999089631971 0.0 0.0 0.0 16.28999089631971 0.0 0.0 0.0 34.40785480372833" Properties=species:S:1:pos:R:3:initial_magmoms:R:1 pbc="T T T"
Si       0.68663165       1.44653571       1.67662689       0.00000000
Si      -2.10593766       0.87848712      -0.50359364       0.00000000
Si       1.34233672       0.22941207      -1.93974390       0.00000000
Si      -0.07527446      -2.30456978       0.56315367       0.00000000
Si       0.26287987      -1.55115498      -3.11969312       0.00000000
Si      -2.19040131      -2.40916787       1.52371829       0.00000000
Si       2.23981799       0.14998203       2.81246522       0.00000000
Si       1.79953186       3.07771857       0.50665595       0.00000000
Si      -0.13131043      -3.30980939      -1.56184222       0.00000000
Si      -1.68821319       3.07600812      -1.26259694       0.00000000
