10
Lattice="16.28999089631971 0.0 0.0 0.0 16.28999089631971 0.0 0.0 0.0 34.40785480372833" Properties=species:S:1:pos:R:3:initial_magmoms:R:1 pbc="T T T"
Si      -1.35640314       1.35775204       1.35656484       0.00000000
Si      -1.35637056      -1.35741312      -1.35739063       0.00000000
Si       1.35742941      -1.35729909       1.35687451       0.00000000
Si       1.35917244       1.35628722      -1.35831964       0.00000000
Si      -2.71240718      -0.00006516       2.71443718       0.00000000
Si      -0.00110772      -2.71322982       2.71381784       0.00000000
Si      -0.00083079      -2.71182888      -2.71557264       0.00000000
Si       2.71430496       0.00042354       2.71485008       0.00000000
Si      -2.71450044      -2.71482624      -0.00034408       0.00000000
Si      -0.00130320       2.71724923       2.71223508       0.00000000
