10
Lattice="16.28999089631971 0.0 0.0 0.0 16.28999089631971 0.0 0.0 0.0 34.40785480372833" Properties=species:S:1:pos:R:3:initial_magmoms:R:1 pbc="T T T"
Si      -1.35894438       1.35545832      -1.36007444       0.00000000
Si       1.35725022      -1.36045935      -1.36045293       0.00000000
Si       1.34995230       1.34786718       1.38670614       0.00000000
Si      -1.38028428      -1.33258716       1.37586766       0.00000000
Si      -2.71689507       2.71103688      -0.00058493       0.00000000
Si       2.71466334       2.71464958      -0.00051612       0.00000000
Si      -0.00042354       2.71269823      -2.71746508       0.00000000
Si       2.71427238      -0.00192222      -2.71787797       0.00000000
Si      -2.71780731      -2.71505430      -0.00048171       0.00000000
Si      -2.71581993      -0.00226431      -2.71805001       0.00000000
