10
Lattice="16.28999089631971 0.0 0.0 0.0 16.28999089631971 0.0 0.0 0.0 34.40785480372833" Properties=species:S:1:pos:R:3:initial_magmoms:R:1 pbc="T T T"
Si      -1.24827012       1.45405096       1.32855683       0.00000000
Si       1.34760654       1.36341405      -1.35553261       0.00000000
Si      -1.36456443      -1.35301482      -1.36010885       0.00000000
Si       1.36249560      -1.18814373       1.55685308       0.00000000
Si       0.55338759       2.41631103       2.67968523       0.00000000
Si      -2.67137429       0.15763833       2.63980650       0.00000000
Si       2.68421733      -2.68020999       0.02091999       0.00000000
Si       2.29514697       0.68025411       2.95023434       0.00000000
Si      -2.70595796      -2.70790299      -0.00120428       0.00000000
Si       2.70555723       0.00783549      -2.71502212       0.00000000
