10
Lattice="16.28999089631971 0.0 0.0 0.0 16.28999089631971 0.0 0.0 0.0 34.40785480372833" Properties=species:S:1:pos:R:3:initial_magmoms:R:1 pbc="T T T"
Si      -1.36249560       1.18814373      -1.55685308       0.00000000
Si      -1.45860660      -1.28936979       1.44915643       0.00000000
Si       0.93265137       1.86839784       1.39338127       0.00000000
Si       1.32172173      -1.49206626      -1.53593309       0.00000000
Si      -2.61076572       2.64219469      -0.22829624       0.00000000
Si      -0.80910801       3.60445476       1.12283215       0.00000000
Si      -0.01488906       2.55155778      -2.91238568       0.00000000
Si       2.89921275       2.61314098       0.07287588       0.00000000
Si       2.51271621      -2.99983608      -0.16436641       0.00000000
Si      -2.76335415      -2.80313433      -0.02198663       0.00000000
