10
Lattice="16.28999089631971 0.0 0.0 0.0 16.28999089631971 0.0 0.0 0.0 34.40785480372833" Properties=species:S:1:pos:R:3:initial_magmoms:R:1 pbc="T T T"
Si      -2.18867553      -1.33428132      -0.19798291       0.00000000
Si      -1.34467434      -0.23675886       2.23031839       0.00000000
Si      -0.67851108       2.56267764       0.63661449       0.00000000
Si       1.29855735      -2.42325153      -0.31992441       0.00000000
Si       2.26038411      -0.76844817       1.56246156       0.00000000
Si       2.19116790      -0.85138056      -2.14013536       0.00000000
Si       0.78635088      -0.22395492       3.31158584       0.00000000
Si       1.61213985       3.12424281       1.01331189       0.00000000
Si       0.12826746      -3.38994900       1.50709929       0.00000000
Si       0.30771810      -1.63357749      -3.34179595       0.00000000
