10
Lattice="16.28999089631971 0.0 0.0 0.0 16.28999089631971 0.0 0.0 0.0 34.40785480372833" Properties=species:S:1:pos:R:3:initial_magmoms:R:1 pbc="T T T"
Si       0.32777109       2.11103739      -1.06526778       0.00000000
Si       1.35250983       0.55671075       1.89969313       0.00000000
Si       1.43524674      -1.48789602      -1.21676565       0.00000000
Si      -2.26738881      -0.78296256       0.44902276       0.00000000
Si       2.10141000       1.31154048      -2.81046956       0.00000000
Si       3.59344368       0.56394351       1.11660433       0.00000000
Si       0.13849758       3.74599043       0.67191696       0.00000000
Si      -1.53914436       2.46549150      -2.46676931       0.00000000
Si      -3.54321021       1.17108810       0.82413740       0.00000000
Si       3.56627196      -1.47509208      -0.13549821       0.00000000
