10
Lattice="16.28999089631971 0.0 0.0 0.0 16.28999089631971 0.0 0.0 0.0 34.40785480372833" Properties=species:S:1:pos:R:3:initial_magmoms:R:1 pbc="T T T"
Si      -1.86691545       0.35445411      -1.40150153       0.00000000
Si      -0.32777109      -2.11103739       1.06526778       0.00000000
Si      -0.18927351       1.63495304       1.73718474       0.00000000
Si       1.77363891      -0.79949691      -1.74520178       0.00000000
Si       1.02473874      -1.55432664       2.96496091       0.00000000
Si      -3.47679099       0.81870512       0.33155427       0.00000000
Si      -1.32437700       2.51239760      -2.41323065       0.00000000
Si       1.10747565      -3.59893341      -0.15149787       0.00000000
Si      -2.39733414       2.59927217       1.51150350       0.00000000
Si       0.67320054       0.65427321       3.76556333       0.00000000
