10
Lattice="16.28999089631971 0.0 0.0 0.0 16.28999089631971 0.0 0.0 0.0 34.40785480372833" Properties=species:S:1:pos:R:3:initial_magmoms:R:1 pbc="T T T"
Si       0.65669877      -2.17310229      -0.75040132       0.00000000
Si      -2.25248183      -0.28644336       0.87117296       0.00000000
Si       0.11139102       1.65804507      -1.77678821       0.00000000
Si       2.02377186       0.36597114       1.32363651       0.00000000
Si       1.30888521       2.59240689       1.99397071       0.00000000
Si      -1.65183858      -1.92072132       2.52860025       0.00000000
Si       3.74906205      -0.05914899      -0.30392475       0.00000000
Si      -0.89738352      -2.71653506      -2.44736326       0.00000000
Si       2.89443978      -1.87958907      -1.56228952       0.00000000
Si      -0.97953399       3.40568514       1.45424880       0.00000000
