10
Lattice="16.28999089631971 0.0 0.0 0.0 16.28999089631971 0.0 0.0 0.0 34.40785480372833" Properties=species:S:1:pos:R:3:initial_magmoms:R:1 pbc="T T T"
Si       1.35702216       1.35872567       1.35677129       0.00000000
Si       1.35736425      -1.35725620      -1.35790675       0.00000000
Si      -1.35852084      -1.35723991       1.35739063       0.00000000
Si      -1.35809730       1.35799588      -1.35797556       0.00000000
Si      -0.00037467       2.70964722       2.71688014       0.00000000
Si      -0.00017919      -2.71328467      -2.71584791       0.00000000
Si       2.71469592      -2.71462045      -0.00041289       0.00000000
Si      -2.71533123       2.71401294      -0.00141072       0.00000000
Si      -2.71365336      -0.00137623      -2.71577909       0.00000000
Si       0.00099369       2.71358940      -2.71584791       0.00000000
