10
Lattice="16.28999089631971 0.0 0.0 0.0 16.28999089631971 0.0 0.0 0.0 34.40785480372833" Properties=species:S:1:pos:R:3:initial_magmoms:R:1 pbc="T T T"
Si      -1.32857982      -1.34760817       1.37776009       0.00000000
Si       1.35739683      -1.35092155      -1.36010885       0.00000000
Si      -1.35669636       1.36316349      -1.36000563       0.00000000
Si       1.35922131       1.36808307       1.38343739       0.00000000
Si      -2.62536156       0.05582583       2.74667736       0.00000000
Si       2.71546155      -2.70769588       0.00006882       0.00000000
Si       0.00037467      -2.70964722      -2.71688014       0.00000000
Si      -2.71609686      -2.71130858       0.00000000       0.00000000
Si       2.71565703       0.00465894      -2.71722422       0.00000000
Si      -2.71495656       0.00436572      -2.71829086       0.00000000
