10
Lattice="16.28999089631971 0.0 0.0 0.0 16.28999089631971 0.0 0.0 0.0 34.40785480372833" Properties=species:S:1:pos:R:3:initial_magmoms:R:1 pbc="T T T"
Si      -0.93889044      -2.18649430      -0.51491383       0.00000000
Si       1.80395460       0.95682573      -1.41299376       0.00000000
Si       1.28169720       0.57927240       2.06519501       0.00000000
Si      -0.03241710       0.27554535      -2.75620834       0.00000000
Si       3.43521891       1.33595919       1.21115717       0.00000000
Si       0.88163109      -3.65751944      -1.26610654       0.00000000
Si       0.27650646       2.47583565       3.18544657       0.00000000
Si       1.29912750      -1.23915912       3.65762583       0.00000000
Si       3.73508523      -0.69380739      -1.62742363       0.00000000
Si      -1.81190412      -3.38862041       1.59483937       0.00000000
