10
Lattice="16.28999089631971 0.0 0.0 0.0 16.28999089631971 0.0 0.0 0.0 34.40785480372833" Properties=species:S:1:pos:R:3:initial_magmoms:R:1 pbc="T T T"
Si       2.36920131      -0.07679106      -0.01806413       0.00000000
Si      -0.96345576      -1.39632993       1.67858813       0.00000000
Si      -0.64506771       2.23093179       0.56845249       0.00000000
Si      -1.60725285      -0.28548225      -2.46907463       0.00000000
Si       3.00762270       2.01567573      -0.91710747       0.00000000
Si       2.95920882      -0.43194564       2.24938036       0.00000000
Si      -3.05603658      -2.02662261       0.81543221       0.00000000
Si      -2.62330902       2.19440961       1.81735509       0.00000000
Si      -1.79374077       2.14374771      -2.70607607       0.00000000
Si      -0.75396636      -0.35445411       3.85082604       0.00000000
