10
Lattice="16.28999089631971 0.0 0.0 0.0 16.28999089631971 0.0 0.0 0.0 34.40785480372833" Properties=species:S:1:pos:R:3:initial_magmoms:R:1 pbc="T T T"
Si       0.48480669      -1.62142515      -1.75979072       0.00000000
Si      -0.83424348       1.82089620      -1.42947513       0.00000000
Si       1.44278901       1.19970963       1.66988092       0.00000000
Si      -1.28537874      -1.46522034       1.63544208       0.00000000
Si       1.41444441       2.89777923      -1.68171925       0.00000000
Si       2.96855928       2.17262988       0.11784697       0.00000000
Si       2.77003305      -2.07906012      -1.52516342       0.00000000
Si      -2.47987557       2.93879745       0.04638181       0.00000000
Si      -0.83929338      -3.65749596      -1.05501423       0.00000000
Si      -2.74853025      -2.77027740       0.24925064       0.00000000
