10
Lattice="16.28999089631971 0.0 0.0 0.0 16.28999089631971 0.0 0.0 0.0 34.40785480372833" Properties=species:S:1:pos:R:3:initial_magmoms:R:1 pbc="T T T"
Si      -1.33178895      -1.38377034      -1.33990111       0.00000000
Si       1.35821133      -1.35400851       1.36544207       0.00000000
Si      -1.35700587       1.36153449       1.36551089       0.00000000
Si       1.38324906       1.37487600      -1.35940693       0.00000000
Si      -2.77797443      -0.12634524      -2.60403952       0.00000000
Si       2.71246419      -2.70690930       0.00041289       0.00000000
Si      -2.70883641      -2.71393029       0.00474829       0.00000000
Si       2.71524978       2.71463076       0.00822348       0.00000000
Si      -2.71215468       2.71798650       0.00471388       0.00000000
Si       0.00057015      -2.71142163       2.72118113       0.00000000
