10
Lattice="16.28999089631971 0.0 0.0 0.0 16.28999089631971 0.0 0.0 0.0 34.40785480372833" Properties=species:S:1:pos:R:3:initial_magmoms:R:1 pbc="T T T"
Si       1.62986337       1.55155734      -0.63520376       0.00000000
Si       1.45212318      -1.56867813       0.96321403       0.00000000
Si      -1.12023072       1.71564651       1.17743745       0.00000000
Si      -1.00471833      -1.52161632      -1.57825477       0.00000000
Si      -1.04391207       0.30185370       3.10623964       0.00000000
Si       2.60812674      -2.11986657      -1.03891135       0.00000000
Si       0.41480856       3.58492401      -0.15270214       0.00000000
Si      -3.28805505       1.54002402       0.31761909       0.00000000
Si       0.09249462      -3.32939907       1.62491185       0.00000000
Si       2.05614009       1.12101264      -2.92632087       0.00000000
