10
Lattice="16.28999089631971 0.0 0.0 0.0 16.28999089631971 0.0 0.0 0.0 34.40785480372833" Properties=species:S:1:pos:R:3:initial_magmoms:R:1 pbc="T T T"
Si       1.35754344       1.35602847       1.35794116       0.00000000
Si       1.35521397      -1.35754344      -1.36131313       0.00000000
Si      -1.35974259       1.35646830      -1.35862931       0.00000000
Si      -1.35765747      -1.35899325       1.35825083       0.00000000
Si       0.02371824       2.70492707      -2.71916482       0.00000000
Si      -2.71347417       2.71190844       0.00006882       0.00000000
Si       0.00017919       2.71328467       2.71584791       0.00000000
Si      -2.71464705      -2.71533123       0.00089460       0.00000000
Si       2.71487511      -0.00133578       2.71543501       0.00000000
Si      -2.71521720      -0.00167787       2.71526297       0.00000000
