10
Lattice="16.28999089631971 0.0 0.0 0.0 16.28999089631971 0.0 0.0 0.0 34.40785480372833" Properties=species:S:1:pos:R:3:initial_magmoms:R:1 pbc="T T T"
Si      -1.44618547       1.25742510      -1.26413841       0.00000000
Si      -1.37704746      -1.33015995       1.34464939       0.00000000
Si       1.33178895       1.38377034       1.33990111       0.00000000
Si       1.52467884      -1.44998919      -2.10487761       0.00000000
Si       0.29729250       2.41989579      -2.40054172       0.00000000
Si      -0.70939692      -2.19677166      -2.73961484       0.00000000
Si      -2.48682651      -0.42842700      -2.57878758       0.00000000
Si       2.12410197       0.81775800      -2.83692031       0.00000000
Si       2.68060095      -2.68074756      -0.05463970       0.00000000
Si      -0.02761155      -2.68563456       2.70455180       0.00000000
