10
Lattice="16.28999089631971 0.0 0.0 0.0 16.28999089631971 0.0 0.0 0.0 34.40785480372833" Properties=species:S:1:pos:R:3:initial_magmoms:R:1 pbc="T T T"
Si      -0.24804783       2.30702859       0.18552726       0.00000000
Si       0.86470578       0.03518640      -2.19308908       0.00000000
Si      -2.20750677      -0.78170823       0.42614152       0.00000000
Si       1.81421730      -0.50472936       1.48060523       0.00000000
Si       3.57280425       0.56480688       0.10625152       0.00000000
Si       0.27917802      -2.37400686       2.81074482       0.00000000
Si      -1.88864631      -2.54962935       1.95092646       0.00000000
Si      -1.71802485       2.54223273       2.12127984       0.00000000
Si      -3.43971495       1.10014515       1.32838479       0.00000000
Si       1.80890676      -2.01945501      -2.74660854       0.00000000
