10
Lattice="16.28999089631971 0.0 0.0 0.0 16.28999089631971 0.0 0.0 0.0 34.40785480372833" Properties=species:S:1:pos:R:3:initial_magmoms:R:1 pbc="T T T"
Si       1.34692236       1.35496636      -1.34252299       0.00000000
Si       1.35435842      -1.35770246       1.35511971       0.00000000
Si      -1.35839052       1.35591118       1.35560142       0.00000000
Si      -1.34500014      -1.37905406      -1.36820503       0.00000000
Si      -0.10889865       2.58326494      -2.66756678       0.00000000
Si       2.55534292       0.00471758      -2.80384948       0.00000000
Si       2.71347158      -0.00065486       2.71285442       0.00000000
Si      -0.00174303       2.71407364       2.71316409       0.00000000
Si      -0.00125433      -2.71568376       2.71288883       0.00000000
Si      -2.71629234      -0.00043494       2.71333613       0.00000000
