10
Lattice="16.28999089631971 0.0 0.0 0.0 16.28999089631971 0.0 0.0 0.0 34.40785480372833" Properties=species:S:1:pos:R:3:initial_magmoms:R:1 pbc="T T T"
Si       1.36049193      -1.35140863      -1.36069379       0.00000000
Si      -1.35658233       1.36125756      -1.35955833       0.00000000
Si      -1.34990343      -1.36010423       1.37600529       0.00000000
Si       1.37586969       1.37709144       1.36496036       0.00000000
Si      -2.53345338       0.15690528       2.75108157       0.00000000
Si       2.71214795      -2.70973389       0.00161717       0.00000000
Si      -2.71340901      -2.71007422      -0.00092901       0.00000000
Si       0.00115659      -2.71132906      -2.71839409       0.00000000
Si      -2.71321353       0.00228060      -2.71822205       0.00000000
Si       2.70782055       2.72477943      -0.00626223       0.00000000
