10
Lattice="16.28999089631971 0.0 0.0 0.0 16.28999089631971 0.0 0.0 0.0 34.40785480372833" Properties=species:S:1:pos:R:3:initial_magmoms:R:1 pbc="T T T"
Si       1.40124594       0.95723298      -1.57047859       0.00000000
Si      -0.97331121      -1.81439649      -1.18978988       0.00000000
Si       1.53151333      -0.82083681       1.63292889       0.00000000
Si      -1.53240030       1.82351889       0.33860789       0.00000000
Si      -0.13665681      -1.20135492       3.31306537       0.00000000
Si      -2.94021468       1.57644846      -1.59249963       0.00000000
Si       0.49234896      -3.64089645      -0.63971119       0.00000000
Si      -3.12694695      -2.12819076      -0.20417632       0.00000000
Si       0.09427023       2.22207003      -3.07131565       0.00000000
Si       2.28534921      -3.02590008       0.90616577       0.00000000
