10
Lattice="16.28999089631971 0.0 0.0 0.0 16.28999089631971 0.0 0.0 0.0 34.40785480372833" Properties=species:S:1:pos:R:3:initial_magmoms:R:1 pbc="T T T"
Si      -0.36575937       1.87137891      -1.37490424       0.00000000
Si       1.48347721      -0.93760353      -1.59731674       0.00000000
Si      -1.96211421      -1.18954467       0.70536142       0.00000000
Si       0.78720352       1.26177453       1.88506979       0.00000000
Si       3.14029565      -1.60692705      -0.08574442       0.00000000
Si      -1.44508590       3.24421866       0.16945878       0.00000000
Si      -1.04568768       2.67581169       2.35669852       0.00000000
Si      -3.71812734      -0.53248752      -0.85080350       0.00000000
Si       1.74757069       2.67053373      -2.18424625       0.00000000
Si       2.02405761      -3.04101720       1.41096369       0.00000000
