10
Lattice="16.28999089631971 0.0 0.0 0.0 16.28999089631971 0.0 0.0 0.0 34.40785480372833" Properties=species:S:1:pos:R:3:initial_magmoms:R:1 pbc="T T T"
Si      -0.39939822       0.56840697      -2.18723974       0.00000000
Si       0.23964219       1.68505389       1.61572495       0.00000000
Si      -2.07677952      -0.92839968       0.62773725       0.00000000
Si       1.83289120      -1.41403716      -0.47162873       0.00000000
Si       2.06648002      -2.54912436       1.53648361       0.00000000
Si       1.04568768      -2.67581169      -2.35669852       0.00000000
Si       0.67596984       2.45667861      -2.78879260       0.00000000
Si      -3.72342159       0.02078604      -0.82585779       0.00000000
Si       1.29673287       0.70027452       3.51865242       0.00000000
Si      -1.95952410       2.60504793       2.02700227       0.00000000
