10
Lattice="16.28999089631971 0.0 0.0 0.0 16.28999089631971 0.0 0.0 0.0 34.40785480372833" Properties=species:S:1:pos:R:3:initial_magmoms:R:1 pbc="T T T"
Si       0.07089408      -2.34377262      -0.26115576       0.00000000
Si       2.07677952       0.92839968      -0.62773725       0.00000000
Si      -0.42627672       0.43054470       2.29111711       0.00000000
Si      -1.64664207       0.94918572      -1.45359505       0.00000000
Si       1.67738130       1.49680665      -2.81497699       0.00000000
Si       2.31642171       2.61345357       0.98798769       0.00000000
Si       1.70914680       0.03433932       3.30177959       0.00000000
Si      -2.05614009      -1.12101264       2.92632087       0.00000000
Si       0.55198665      -3.24087921       1.88740952       0.00000000
Si       0.11725542       3.53344761       1.39926501       0.00000000
