10
Lattice="16.28999089631971 0.0 0.0 0.0 16.28999089631971 0.0 0.0 0.0 34.40785480372833" Properties=species:S:1:pos:R:3:initial_magmoms:R:1 pbc="T T T"
Si       0.89573823      -0.65492316      -2.00181570       0.00000000
Si      -0.64492110      -1.89706824       1.25681641       0.00000000
Si      -1.55398455       1.75324383       0.41815889       0.00000000
Si       2.24147535       0.95687460       0.72043207       0.00000000
Si       0.55721574       2.24129223       1.79653833       0.00000000
Si       0.86610672      -1.39642767       3.14594633       0.00000000
Si      -0.85001220      -1.66371399      -3.27862309       0.00000000
Si       2.97943678      -0.59727285       2.33660432       0.00000000
Si       2.67084065      -2.38438359      -1.51625178       0.00000000
Si       1.93810016       1.10330541      -3.25085594       0.00000000
