10
Lattice="16.28999089631971 0.0 0.0 0.0 16.28999089631971 0.0 0.0 0.0 34.40785480372833" Properties=species:S:1:pos:R:3:initial_magmoms:R:1 pbc="T T T"
Si       0.67191363       2.03354586      -0.95660771       0.00000000
Si      -0.23964219      -1.68505389      -1.61572495       0.00000000
Si       1.05709068      -0.98477937       1.90292747       0.00000000
Si      -2.19916629       0.91999404       0.41127732       0.00000000
Si       1.04356998       1.15874028       2.95477618       0.00000000
Si      -0.60727491      -2.57911425       2.31379190       0.00000000
Si      -2.31642171      -2.61345357      -0.98798769       0.00000000
Si      -2.74269843      -2.18290887       1.30312941       0.00000000
Si      -0.62473779       2.24722179      -2.96134809       0.00000000
Si       0.07801281       3.74298166       0.58035761       0.00000000
