10
Lattice="16.28999089631971 0.0 0.0 0.0 16.28999089631971 0.0 0.0 0.0 34.40785480372833" Properties=species:S:1:pos:R:3:initial_magmoms:R:1 pbc="T T T"
Si      -1.65681843       0.66932352      -1.51157231       0.00000000
Si       1.85217300      -1.21096602      -0.79096821       0.00000000
Si      -1.11623804      -1.43409015       1.49670811       0.00000000
Si       0.98912880       1.70865810       1.30598527       0.00000000
Si      -3.14029565       1.60692705       0.08574442       0.00000000
Si       0.71550567      -2.80176597       2.08449782       0.00000000
Si       3.09166281       1.87607043       0.25437741       0.00000000
Si       1.16027154       0.57563973       3.40170006       0.00000000
Si       1.57475430      -3.38768469       0.01813295       0.00000000
Si      -1.01070653      -0.27627840       3.61926105       0.00000000
