10
Lattice="16.28999089631971 0.0 0.0 0.0 16.28999089631971 0.0 0.0 0.0 34.40785480372833" Properties=species:S:1:pos:R:3:initial_magmoms:R:1 pbc="T T T"
Si       0.37160748       0.98531694       2.08322473       0.00000000
Si       0.55529352       1.70509059      -1.56442281       0.00000000
Si       1.43498610      -1.94432553      -0.24068308       0.00000000
Si      -1.60221924      -1.77596838       0.57960064       0.00000000
Si       0.09418878      -1.19140173       2.89232589       0.00000000
Si       3.35132541      -0.63522855      -1.22812025       0.00000000
Si       0.34140582       0.52913178      -3.57587272       0.00000000
Si      -2.19633183      -2.35812411      -1.70411878       0.00000000
Si       1.90254168      -2.37636891       2.05638659       0.00000000
Si      -0.14929785      -3.54066408      -1.41244323       0.00000000
