10
Lattice="16.28999089631971 0.0 0.0 0.0 16.28999089631971 0.0 0.0 0.0 34.40785480372833" Properties=species:S:1:pos:R:3:initial_magmoms:R:1 pbc="T T T"
Si       1.35509994       1.35949720       1.35567024       0.00000000
Si       1.35640314      -1.35775204      -1.35656484       0.00000000
Si      -1.35600403      -1.35781720       1.35787234       0.00000000
Si      -1.35882383       1.35747235      -1.35701214       0.00000000
Si       0.00360009       2.70918397       2.71099640       0.00000000
Si       2.71389771       2.71392436      -0.00051612       0.00000000
Si       2.71383255      -2.71505113       0.00030967       0.00000000
Si       0.00003258      -2.71516516      -2.71395547       0.00000000
Si      -0.00405621       2.71495063      -2.71433396       0.00000000
Si       2.71557558      -0.00146482      -2.71488448       0.00000000
