10
Lattice="16.28999089631971 0.0 0.0 0.0 16.28999089631971 0.0 0.0 0.0 34.40785480372833" Properties=species:S:1:pos:R:3:initial_magmoms:R:1 pbc="T T T"
Si      -1.35558218      -1.35982404       1.35481004       0.00000000
Si      -1.35625007       1.35716877      -1.35804438       0.00000000
Si       1.35810117       1.35700587       1.35763149       0.00000000
Si       1.35892219      -1.35795069      -1.35776912       0.00000000
Si      -0.00719471      -2.70860346       2.71216626       0.00000000
Si      -2.71354916      -2.71448415      -0.00020645       0.00000000
Si      -2.71382609       2.71477737       0.00027526       0.00000000
Si      -2.71460801      -0.00109143      -2.71460922       0.00000000
Si       2.71558923       0.00057015      -2.71381784       0.00000000
Si      -2.71206677      -0.00184077       2.71746508       0.00000000
