10
Lattice="16.28999089631971 0.0 0.0 0.0 16.28999089631971 0.0 0.0 0.0 34.40785480372833" Properties=species:S:1:pos:R:3:initial_magmoms:R:1 pbc="T T T"
Si      -1.35707103       1.35692442      -1.35725300       0.00000000
Si       1.35632169       1.35852084       1.35690892       0.00000000
Si       1.35770634      -1.35767376      -1.35776912       0.00000000
Si      -1.35812336      -1.35816246       1.35763149       0.00000000
Si       0.00161271       2.71132389       2.71285442       0.00000000
Si      -2.71294379       0.00048870      -2.71454041       0.00000000
Si      -0.00063531      -2.71459818      -2.71381784       0.00000000
Si       0.00105885       2.71433754      -2.71429955       0.00000000
Si       2.71485882       2.71445157      -0.00003441       0.00000000
Si      -2.71504640       2.71450044       0.00017204       0.00000000
