10
Lattice="16.28999089631971 0.0 0.0 0.0 16.28999089631971 0.0 0.0 0.0 34.40785480372833" Properties=species:S:1:pos:R:3:initial_magmoms:R:1 pbc="T T T"
Si      -1.26840456       1.45306800       1.30474658       0.00000000
Si       1.34139353       1.35488817      -1.35890458       0.00000000
Si      -1.37738207      -1.35633798      -1.35649603       0.00000000
Si       1.30509941      -1.28337507       1.53607072       0.00000000
Si      -2.31076649      -0.30516057       2.55378682       0.00000000
Si      -0.53566407      -2.03462100       3.03935074       0.00000000
Si       2.68494386      -2.71023246       0.03151761       0.00000000
Si       2.69610251       0.00208512      -2.71485008       0.00000000
Si       2.70595796       2.70790299       0.00120428       0.00000000
Si      -0.01834254      -2.71459818      -2.71412751       0.00000000
