10
Lattice="16.28999089631971 0.0 0.0 0.0 16.28999089631971 0.0 0.0 0.0 34.40785480372833" Properties=species:S:1:pos:R:3:initial_magmoms:R:1 pbc="T T T"
Si      -0.89000156      -1.85315040      -1.35233267       0.00000000
Si       1.84076348       0.75124593      -1.50328002       0.00000000
Si      -1.77510242       1.72946043      -0.48556392       0.00000000
Si       0.69372757      -0.24496902       2.48724199       0.00000000
Si       0.53566407       2.03462100      -3.03935074       0.00000000
Si       2.98106348      -0.82951938       2.10263077       0.00000000
Si      -2.19110015      -0.69276483      -3.02951008       0.00000000
Si       3.14551103       2.26501047      -0.03213695       0.00000000
Si      -2.67084065       2.38438359       1.51625178       0.00000000
Si      -0.73274049       3.48768900      -1.73460415       0.00000000
