10
Lattice="16.28999089631971 0.0 0.0 0.0 16.28999089631971 0.0 0.0 0.0 34.40785480372833" Properties=species:S:1:pos:R:3:initial_magmoms:R:1 pbc="T T T"
Si       0.75611664      -2.15202303      -0.58988859       0.00000000
Si      -2.28733591       0.58455036       0.38461122       0.00000000
Si       1.63937673       1.68335973      -0.60447753       0.00000000
Si      -2.98106348       0.82951938      -2.10263077       0.00000000
Si       0.16444755       3.09452985      -2.13476773       0.00000000
Si      -2.93656083      -0.99150714       2.33715484       0.00000000
Si       3.36566061      -2.06311221      -0.49058747       0.00000000
Si       0.20082312      -3.85711362       0.97453422       0.00000000
Si      -1.14030000       1.58076531      -3.60591079       0.00000000
Si       3.95631972      -0.37230795       1.10060467       0.00000000
