10
Lattice="16.28999089631971 0.0 0.0 0.0 16.28999089631971 0.0 0.0 0.0 34.40785480372833" Properties=species:S:1:pos:R:3:initial_magmoms:R:1 pbc="T T T"
Si      -2.21288247      -0.55508175       0.26800293       0.00000000
Si       0.85626756      -2.18970180       0.01421045       0.00000000
Si       0.23576517       0.95791716       2.14581266       0.00000000
Si       0.08992080       1.12399371      -2.08370644       0.00000000
Si      -1.81319103      -2.07347265       2.16050482       0.00000000
Si       0.24503418       3.25058805       1.67105281       0.00000000
Si       0.22498119      -3.13953912      -2.04341482       0.00000000
Si       2.48095071       0.56560509       2.75854808       0.00000000
Si       2.42794305       1.14443766      -2.67132412       0.00000000
Si      -0.79478910       3.33052308      -1.65983584       0.00000000
