10
Lattice="16.28999089631971 0.0 0.0 0.0 16.28999089631971 0.0 0.0 0.0 34.40785480372833" Properties=species:S:1:pos:R:3:initial_magmoms:R:1 pbc="T T T"
Si       2.00386548      -0.38398788      -1.20458526       0.00000000
Si      -1.79051535      -1.53086904       0.72249654       0.00000000
Si       0.73578672       0.86364693       2.22719076       0.00000000
Si      -1.60819767       0.47161179      -1.86858842       0.00000000
Si       1.33859817      -2.41890210      -2.07558619       0.00000000
Si      -0.89047656       2.55293622       2.33183577       0.00000000
Si       0.18213849      -0.98438841       3.57554726       0.00000000
Si       1.98118980       1.38834783      -2.82609073       0.00000000
Si      -1.80331929      -3.13800786      -0.98829737       0.00000000
Si      -0.93905334      -2.76390801       2.49586189       0.00000000
