10
Lattice="16.28999089631971 0.0 0.0 0.0 16.28999089631971 0.0 0.0 0.0 34.40785480372833" Properties=species:S:1:pos:R:3:initial_magmoms:R:1 pbc="T T T"
Si       1.35481975      -1.35249354       1.36172602       0.00000000
Si      -1.36314982       1.36309636       1.36093464       0.00000000
Si      -1.35413298      -1.34962650      -1.38872588       0.00000000
Si       1.33887184       1.37467676      -1.37926716       0.00000000
Si       2.71035952      -2.70690930       0.00354401       0.00000000
Si      -0.00331013      -2.70990666       2.71877257       0.00000000
Si       2.71119031       0.00491958       2.71911665       0.00000000
Si      -2.71812726      -2.71264338      -0.00182362       0.00000000
Si       2.70850246       2.72569234      -0.00289026       0.00000000
Si      -2.71876257       0.00511506       2.71870376       0.00000000
