10
Lattice="16.28999089631971 0.0 0.0 0.0 16.28999089631971 0.0 0.0 0.0 34.40785480372833" Properties=species:S:1:pos:R:3:initial_magmoms:R:1 pbc="T T T"
Si       1.45860660       1.28936979      -1.44915643       0.00000000
Si      -1.30474755      -1.51376454      -1.47114306       0.00000000
Si      -1.39271355       1.65460788       1.32036776       0.00000000
Si       1.47492918      -1.41117012       1.53029020       0.00000000
Si      -2.57526329       2.63515185      -0.36620300       0.00000000
Si      -0.16444755      -3.09452985       2.13476773       0.00000000
Si      -3.14551103      -2.26501047       0.03213695       0.00000000
Si       0.09611100       2.47751352      -3.00600951       0.00000000
Si       2.39125797       3.15776763      -0.05577516       0.00000000
Si      -2.60984696      -0.23038947      -3.00721378       0.00000000
