10
Lattice="16.28999089631971 0.0 0.0 0.0 16.28999089631971 0.0 0.0 0.0 34.642051614445585" Properties=species:S:1:pos:R:3:initial_magmoms:R:1 pbc="T T T"
Si      -0.01026270      -0.56739699       2.30449449       0.00000000
Si       1.44381528      -1.17643122      -1.47821181       0.00000000
Si       0.29739024       2.34053321      -0.29875322       0.00000000
Si      -2.08353824      -1.10214882      -0.37465400       0.00000000
Si      -2.11051122       0.38007828       2.79779758       0.00000000
Si       2.42949060       2.72260050       0.81769144       0.00000000
Si      -3.63424103      -0.02244762       1.04265705       0.00000000
Si      -1.75999766      -3.43523520       0.24415732       0.00000000
Si       0.07369596      -1.97144838      -3.38002686       0.00000000
Si       2.17034928      -3.21813837      -0.54765650       0.00000000
