10
Lattice="16.28999089631971 0.0 0.0 0.0 16.28999089631971 0.0 0.0 0.0 34.642051614445585" Properties=species:S:1:pos:R:3:initial_magmoms:R:1 pbc="T T T"
Si      -1.55070279       1.07970120       1.41731105       0.00000000
Si       2.08353824       1.10214882       0.37465400       0.00000000
Si      -1.08060597       0.52720956      -2.10014091       0.00000000
Si       0.32354058      -2.33308638       0.61881131       0.00000000
Si      -2.60306937      -1.35210258      -1.70972477       0.00000000
Si       2.07327554       0.53475183       2.67914849       0.00000000
Si      -0.02697298       1.48222710       3.17245158       0.00000000
Si       3.52735352      -0.07428240      -1.10355781       0.00000000
Si       2.15723420      -0.86929956      -3.00537287       0.00000000
Si      -1.38659733      -2.78345601       2.25519882       0.00000000
