10
Lattice="16.28999089631971 0.0 0.0 0.0 16.28999089631971 0.0 0.0 0.0 34.642051614445585" Properties=species:S:1:pos:R:3:initial_magmoms:R:1 pbc="T T T"
Si       0.72205914      -1.74133584      -1.34657194       0.00000000
Si      -1.58138663       1.30600188      -1.08595964       0.00000000
Si      -0.69195522      -0.93144591       2.02680365       0.00000000
Si       2.07502509       1.11623967       0.30824515       0.00000000
Si       1.63889292      -3.30286266       0.13212486       0.00000000
Si       0.15185701       0.55159569       3.66263688       0.00000000
Si       2.12079999      -0.75232107      -2.96536128       0.00000000
Si       0.51191814      -3.00584709       2.24113414       0.00000000
Si      -2.39161865       2.95767756       0.42041617       0.00000000
Si      -0.67265320       2.46268962      -2.89122724       0.00000000
