10
Lattice="16.28999089631971 0.0 0.0 0.0 16.28999089631971 0.0 0.0 0.0 34.642051614445585" Properties=species:S:1:pos:R:3:initial_magmoms:R:1 pbc="T T T"
Si       1.35446463      -1.35236715       1.35956272       0.00000000
Si      -1.35405738       1.35062345       1.36396226       0.00000000
Si       1.35682668       1.35640640      -1.35692992       0.00000000
Si      -1.35874890      -1.35841320      -1.35623708       0.00000000
Si       2.69159670       0.01906256       2.67966812       0.00000000
Si      -0.00175932       2.71398242      -2.71375591       0.00000000
Si       2.71430496      -0.00146610      -2.71358270       0.00000000
Si      -0.00089595      -2.71597047      -2.71379056       0.00000000
Si      -2.71624999      -0.00074119      -2.71365199       0.00000000
Si      -2.71638519       2.71399871       0.00187067       0.00000000
