10
Lattice="16.28999089631971 0.0 0.0 0.0 16.28999089631971 0.0 0.0 0.0 34.642051614445585" Properties=species:S:1:pos:R:3:initial_magmoms:R:1 pbc="T T T"
Si      -1.47706317       1.07802333       1.39908932       0.00000000
Si       1.71051516       0.37114810       1.52584466       0.00000000
Si       1.41744177      -1.40493498      -1.32353496       0.00000000
Si      -1.45815048       1.23720269      -1.44893926       0.00000000
Si       1.38725640      -1.96535985       2.04616856       0.00000000
Si       0.42981165       2.41761845      -2.40977174       0.00000000
Si      -2.64209139      -0.60037188      -2.35936753       0.00000000
Si       2.95814997      -2.28446466       0.20515034       0.00000000
Si       3.88462743      -0.07420747       0.66613238       0.00000000
Si      -0.74111355      -2.92241364       2.54650400       0.00000000
