10
Lattice="16.28999089631971 0.0 0.0 0.0 16.28999089631971 0.0 0.0 0.0 34.642051614445585" Properties=species:S:1:pos:R:3:initial_magmoms:R:1 pbc="T T T"
Si       1.25698527      -1.36601424      -1.41661821       0.00000000
Si      -1.40973660       1.33745787      -1.38045189       0.00000000
Si      -1.88796213      -1.18041575       0.96083248       0.00000000
Si       1.80709857       0.93351474       1.33759964       0.00000000
Si      -0.42981165      -2.41761845       2.40977174       0.00000000
Si      -3.19244904       0.90134199       1.10556705       0.00000000
Si       2.62614348      -2.64189949      -0.12568143       0.00000000
Si       2.63511927      -0.02565675      -2.74001460       0.00000000
Si      -0.07889247       2.68509699      -2.73779751       0.00000000
Si      -0.08014680      -2.73744395      -2.73672361       0.00000000
