10
Lattice="16.28999089631971 0.0 0.0 0.0 16.28999089631971 0.0 0.0 0.0 34.642051614445585" Properties=species:S:1:pos:R:3:initial_magmoms:R:1 pbc="T T T"
Si      -2.18209437       0.09472635       0.88576311       0.00000000
Si       1.19863449       1.59801642       1.28556725       0.00000000
Si       0.70990191      -1.77641639       1.43376603       0.00000000
Si       0.17576910       0.79557102      -2.31661921       0.00000000
Si      -1.15263153      -2.81304584      -1.10172178       0.00000000
Si      -1.69267761      -2.07426176       1.84881269       0.00000000
Si       2.43248796       1.41305976      -1.95377816       0.00000000
Si       3.26334312       1.50904044       0.26501184       0.00000000
Si      -3.30118479       1.06189623      -1.03257621       0.00000000
Si      -1.66744440       2.26070991      -2.29805106       0.00000000
