10
Lattice="16.28999089631971 0.0 0.0 0.0 16.28999089631971 0.0 0.0 0.0 34.642051614445585" Properties=species:S:1:pos:R:3:initial_magmoms:R:1 pbc="T T T"
Si      -0.02972925       2.33450361       0.19756373       0.00000000
Si      -1.58092821      -0.41857973      -1.72229984       0.00000000
Si       2.28117015      -0.30611174      -0.60142099       0.00000000
Si      -0.46879362      -1.56778937       1.75403198       0.00000000
Si      -0.07209954      -1.62700352      -3.06741682       0.00000000
Si      -0.57466233      -3.49457057       0.20698637       0.00000000
Si      -1.09219563       2.95585308      -1.87049862       0.00000000
Si       3.36911409      -0.19090577       1.55539434       0.00000000
Si       2.58761763       1.13442257      -2.56171186       0.00000000
Si       0.72861912      -3.36486959      -1.73965552       0.00000000
