10
Lattice="16.28999089631971 0.0 0.0 0.0 16.28999089631971 0.0 0.0 0.0 34.642051614445585" Properties=species:S:1:pos:R:3:initial_magmoms:R:1 pbc="T T T"
Si       0.52299045      -1.38999312      -1.84566026       0.00000000
Si      -1.85753241      -1.24655967       0.89026658       0.00000000
Si      -0.42046119       2.00593431      -1.29433170       0.00000000
Si       2.05021053       1.21174794       0.95944680       0.00000000
Si       1.20013317       3.27453435      -0.04815248       0.00000000
Si      -1.03128732      -1.15377183       3.15097977       0.00000000
Si       2.72557764      -0.42380064      -2.32770467       0.00000000
Si       0.30043647      -3.67437240      -1.15153708       0.00000000
Si      -0.78511284      -0.65427156      -3.72939215       0.00000000
Si       3.86509572       0.37385550      -0.41005819       0.00000000
