10
Lattice="16.28999089631971 0.0 0.0 0.0 16.28999089631971 0.0 0.0 0.0 34.642051614445585" Properties=species:S:1:pos:R:3:initial_magmoms:R:1 pbc="T T T"
Si       1.35822762       1.34421822       1.38704427       0.00000000
Si      -1.35358497      -1.37609775       1.38791032       0.00000000
Si       1.47936006      -1.32444216      -1.38832603       0.00000000
Si      -1.37671677       1.46750094      -1.47546123       0.00000000
Si      -2.70861975      -2.70606222       0.02323790       0.00000000
Si       2.70901071       2.70679527      -0.00445843       0.00000000
Si       2.71350675      -2.72336220       0.04385340       0.00000000
Si      -2.72029968       2.71958292       0.01710279       0.00000000
Si       0.00218286       2.70111006       2.74865087       0.00000000
Si      -2.71138905      -0.01459584       2.74899729       0.00000000
