10
Lattice="16.28999089631971 0.0 0.0 0.0 16.28999089631971 0.0 0.0 0.0 34.642051614445585" Properties=species:S:1:pos:R:3:initial_magmoms:R:1 pbc="T T T"
Si       1.16370873       0.51992793      -1.98993586       0.00000000
Si       1.98050562       0.77045184       1.07334265       0.00000000
Si      -0.69957405      -1.95740640       1.18727696       0.00000000
Si      -1.89719856       1.78430886      -0.16388302       0.00000000
Si       0.63692271       2.02253382       2.56590667       0.00000000
Si      -2.10085614      -0.70521039       2.57286973       0.00000000
Si      -0.65414124       1.80613746      -2.87583754       0.00000000
Si      -0.68310486       3.44761560       1.06950777       0.00000000
Si      -3.50999490       0.61416558       1.08687385       0.00000000
Si       3.03306768       2.41502508      -0.51664323       0.00000000
