10
Lattice="16.28999089631971 0.0 0.0 0.0 16.28999089631971 0.0 0.0 0.0 34.642051614445585" Properties=species:S:1:pos:R:3:initial_magmoms:R:1 pbc="T T T"
Si      -1.40809131       1.36184400       1.24860416       0.00000000
Si       1.32696711       1.36629117      -1.37425096       0.00000000
Si      -1.38590433      -1.34920296      -1.36992070       0.00000000
Si       1.43798346      -1.28458053       1.62190712       0.00000000
Si      -0.67895091      -1.89794790       2.93210489       0.00000000
Si      -2.39093217      -0.22493232       2.64592674       0.00000000
Si       2.69030979      -2.71661814       0.03256355       0.00000000
Si       2.68534134       0.01143558      -2.73152730       0.00000000
Si       2.68685631       2.73206106      -0.01066976       0.00000000
Si      -0.02958264      -2.70397710      -2.73142337       0.00000000
