10
Lattice="16.28999089631971 0.0 0.0 0.0 16.28999089631971 0.0 0.0 0.0 34.642051614445585" Properties=species:S:1:pos:R:3:initial_magmoms:R:1 pbc="T T T"
Si       2.01222225       0.83818566       0.89102871       0.00000000
Si      -1.49692068      -0.12474882       1.87167645       0.00000000
Si      -0.72734850       1.68013431      -1.56415879       0.00000000
Si       0.63936621      -2.07570438      -1.06333837       0.00000000
Si       3.22401906       1.52695944      -1.07206817       0.00000000
Si       1.19092932      -3.49917345       0.85403098       0.00000000
Si       1.58557086       2.80697877       2.07447114       0.00000000
Si      -3.07139805       1.48867794      -1.81590272       0.00000000
Si      -0.82430658      -1.79435979       3.36658574       0.00000000
Si      -3.55330512      -1.06186365       1.28158342       0.00000000
