10
Lattice="16.28999089631971 0.0 0.0 0.0 16.28999089631971 0.0 0.0 0.0 34.642051614445585" Properties=species:S:1:pos:R:3:initial_magmoms:R:1 pbc="T T T"
Si      -1.21409370      -1.66330674      -1.23339079       0.00000000
Si      -1.38627900       1.28726107       1.48503976       0.00000000
Si       1.32002757      -1.42508178       1.49639890       0.00000000
Si       1.72204848       0.72886347      -1.59068911       0.00000000
Si       2.60006319       2.50857922      -0.05185572       0.00000000
Si       0.68310486      -3.44761560      -1.06950777       0.00000000
Si       2.66361048      -2.67716376       0.00383488       0.00000000
Si      -2.73894847       2.74733849       0.09468717       0.00000000
Si      -0.02992473       2.62978008       2.86703322       0.00000000
Si      -2.25621387      -0.68624883      -3.13167236       0.00000000
