10
Lattice="16.28999089631971 0.0 0.0 0.0 16.28999089631971 0.0 0.0 0.0 34.642051614445585" Properties=species:S:1:pos:R:3:initial_magmoms:R:1 pbc="T T T"
Si       1.36598166       1.33990137       1.37468745       0.00000000
Si      -1.34910522      -1.37471310       1.37014933       0.00000000
Si       1.34358291      -1.25208198      -1.49256402       0.00000000
Si      -1.32002757       1.42508178      -1.49639890       0.00000000
Si      -0.63692271      -2.02253382      -2.56590667       0.00000000
Si      -2.53412127      -0.23822496      -2.72978969       0.00000000
Si       0.40202091       2.15394525      -3.08708801       0.00000000
Si       2.71749780       2.69299764      -0.01398500       0.00000000
Si      -2.70630657       2.71234285      -0.01135914       0.00000000
Si       0.00982287       2.69478954       2.73140951       0.00000000
