10
Lattice="16.28999089631971 0.0 0.0 0.0 16.28999089631971 0.0 0.0 0.0 34.642051614445585" Properties=species:S:1:pos:R:3:initial_magmoms:R:1 pbc="T T T"
Si      -1.78902386      -0.02184326       1.51614488       0.00000000
Si       1.39349547       1.56043376       1.08945849       0.00000000
Si       0.26370741      -2.32745886      -0.27779477       0.00000000
Si      -1.00011545       0.95604218      -1.92547559       0.00000000
Si       0.91674256       1.31065919      -3.15603123       0.00000000
Si      -0.22023103       3.20064128       1.67161849       0.00000000
Si      -1.26002240      -2.72998476      -2.03293529       0.00000000
Si      -3.60566837       0.81625769       0.10184769       0.00000000
Si      -2.22033419      -0.77614194      -2.89701247       0.00000000
Si      -1.43820242       1.73863007       3.03419507       0.00000000
