10
Lattice="16.28999089631971 0.0 0.0 0.0 16.28999089631971 0.0 0.0 0.0 34.642051614445585" Properties=species:S:1:pos:R:3:initial_magmoms:R:1 pbc="T T T"
Si      -0.96151725       1.40312286       1.60098331       0.00000000
Si      -1.21184568       0.17313012      -2.03141104       0.00000000
Si      -0.72604530      -2.17435662       0.75429645       0.00000000
Si       2.41280964       0.05242122      -0.21606260       0.00000000
Si       1.37559276      -3.14556642       1.27320003       0.00000000
Si      -0.88858692       2.50963807      -2.55173495       0.00000000
Si       2.91134880      -2.26069362      -0.38851083       0.00000000
Si      -1.52906085       0.02966409       3.41861813       0.00000000
Si      -3.34021563      -0.78392367      -1.53107561       0.00000000
Si       0.68048217       2.88880737       2.37242759       0.00000000
