10
Lattice="16.28999089631971 0.0 0.0 0.0 16.28999089631971 0.0 0.0 0.0 34.642051614445585" Properties=species:S:1:pos:R:3:initial_magmoms:R:1 pbc="T T T"
Si       1.28422215       0.58407795       1.81479417       0.00000000
Si      -2.08713996       0.75587229       0.62442333       0.00000000
Si      -0.22797855      -2.28063258      -0.49607446       0.00000000
Si       0.56754360       1.37345877      -1.81763482       0.00000000
Si      -3.26523276      -0.20455353      -1.16698744       0.00000000
Si       0.80301555      -2.20402071      -2.66432168       0.00000000
Si      -0.22460652       1.79250174       3.15991115       0.00000000
Si      -2.57202810      -2.47208895      -0.74781839       0.00000000
Si       3.12675147       1.71580941       0.80296856       0.00000000
Si      -2.61780300      -0.60352821       2.52578804       0.00000000
