10
Lattice="16.28999089631971 0.0 0.0 0.0 16.28999089631971 0.0 0.0 0.0 34.642051614445585" Properties=species:S:1:pos:R:3:initial_magmoms:R:1 pbc="T T T"
Si      -1.35669636      -1.35745444      -1.35772669       0.00000000
Si      -1.35799956       1.36005536       1.35502461       0.00000000
Si       1.35856971       1.35715574      -1.35786526       0.00000000
Si       1.35809730      -1.35824784       1.35821168       0.00000000
Si      -2.73613356       0.01969787       2.67842100       0.00000000
Si       0.01534518       2.70453422       2.71448340       0.00000000
Si      -2.71220355       2.71567658      -0.00117783       0.00000000
Si      -2.71342530      -0.00083079      -2.71482982       0.00000000
Si      -2.71332756      -2.71538403      -0.00103926       0.00000000
Si       0.00197109      -2.70938931       2.71995684       0.00000000
