10
Lattice="16.28999089631971 0.0 0.0 0.0 16.28999089631971 0.0 0.0 0.0 34.642051614445585" Properties=species:S:1:pos:R:3:initial_magmoms:R:1 pbc="T T T"
Si       2.04525837      -0.58026609      -1.02540530       0.00000000
Si      -0.57034548      -1.29421118       1.91657258       0.00000000
Si      -2.03051592      -0.08470800      -1.24985128       0.00000000
Si      -0.29706444       2.14542558       1.04865013       0.00000000
Si      -1.28190897       0.82862343       2.73513007       0.00000000
Si       2.51458956       1.54544859      -1.97702299       0.00000000
Si      -2.21234490      -2.77989569       1.14512830       0.00000000
Si      -3.60536796      -1.06791050       0.30897263       0.00000000
Si       1.70401545      -2.47541930      -2.32133053       0.00000000
Si      -2.75830425       2.16792207      -1.54105253       0.00000000
