10
Lattice="16.28999089631971 0.0 0.0 0.0 16.28999089631971 0.0 0.0 0.0 34.642051614445585" Properties=species:S:1:pos:R:3:initial_magmoms:R:1 pbc="T T T"
Si      -2.06470863       0.08897598       1.02055541       0.00000000
Si       0.99015507       2.10745359       0.36207893       0.00000000
Si      -0.83085516      -0.09598068      -2.21879000       0.00000000
Si       1.61510463      -1.73245453       0.32934217       0.00000000
Si      -1.00224225      -0.53237349       3.08861776       0.00000000
Si      -2.51361216       2.32922565       0.33142069       0.00000000
Si       3.38507829      -0.33971166      -0.54779507       0.00000000
Si       2.71236645       1.84213836      -1.11831534       0.00000000
Si      -3.26334312      -1.50904044      -0.26501184       0.00000000
Si       0.79791678      -3.36214916      -1.18818839       0.00000000
