10
Lattice="16.28999089631971 0.0 0.0 0.0 16.28999089631971 0.0 0.0 0.0 34.642051614445585" Properties=species:S:1:pos:R:3:initial_magmoms:R:1 pbc="T T T"
Si       1.86139314       0.55005954       1.54321215       0.00000000
Si      -1.93846113       1.65329328       0.06360284       0.00000000
Si       0.98189604       0.67500710      -2.26022192       0.00000000
Si      -0.78535719      -2.10859619       1.36731357       0.00000000
Si       0.60145938       1.92525483       2.94934421       0.00000000
Si      -0.81422307       3.27437634       1.50674445       0.00000000
Si      -2.11087449      -0.82621481       2.92604741       0.00000000
Si      -3.54833667       0.41444855       1.39177780       0.00000000
Si      -2.43222732      -3.12672119      -0.14251748       0.00000000
Si      -0.38242404       2.62091928      -3.00329434       0.00000000
