10
Lattice="16.28999089631971 0.0 0.0 0.0 16.28999089631971 0.0 0.0 0.0 34.642051614445585" Properties=species:S:1:pos:R:3:initial_magmoms:R:1 pbc="T T T"
Si       2.03801307      -0.91333699       0.78093621       0.00000000
Si       0.15542012       2.35999909      -0.08078531       0.00000000
Si      -1.60139189      -0.23818821       1.75541766       0.00000000
Si      -1.08152912      -0.78748045      -2.06518706       0.00000000
Si      -3.06648191      -1.44261538      -1.05966631       0.00000000
Si       3.37573158      -0.53073376      -1.12818833       0.00000000
Si      -3.55925441       0.26753556       0.56923851       0.00000000
Si      -1.06447349       2.78362054      -2.06484064       0.00000000
Si       1.46194654      -3.19356232       1.17703365       0.00000000
Si      -1.11450008       1.35064788       3.33980742       0.00000000
