10
Lattice="16.28999089631971 0.0 0.0 0.0 16.28999089631971 0.0 0.0 0.0 34.642051614445585" Properties=species:S:1:pos:R:3:initial_magmoms:R:1 pbc="T T T"
Si      -1.32859611      -1.35203742       1.36938721       0.00000000
Si       1.31634603      -1.32695082      -1.43592077       0.00000000
Si       1.38362373       1.36534635       1.36879829       0.00000000
Si      -1.46665386       1.31468445      -1.43023254       0.00000000
Si       1.97363124       0.56019681      -2.71066727       0.00000000
Si       0.31328928       2.38422069      -2.62579623       0.00000000
Si      -2.69878059      -2.70899442      -0.03048156       0.00000000
Si       2.73202848      -2.67607233       0.00667899       0.00000000
Si      -2.68990254       0.00426798       2.72867279       0.00000000
Si      -2.68612326       2.74380615       0.00350231       0.00000000
