10
Lattice="16.28999089631971 0.0 0.0 0.0 16.28999089631971 0.0 0.0 0.0 34.642051614445585" Properties=species:S:1:pos:R:3:initial_magmoms:R:1 pbc="T T T"
Si      -1.35812988       1.35070164       1.35928558       0.00000000
Si       1.35716877       1.35466011      -1.35710313       0.00000000
Si      -1.35816246      -1.36014984      -1.35699920       0.00000000
Si       1.35635427      -1.36135530       1.36437797       0.00000000
Si      -2.70138699      -0.01277136       2.71534945       0.00000000
Si      -2.71391400       2.71269225       0.00083141       0.00000000
Si      -0.00109143       2.71287144      -2.71413698       0.00000000
Si       2.71482624       2.71306692      -0.00003464       0.00000000
Si       2.71495656      -0.00337203      -2.71406769       0.00000000
Si      -2.71606428      -0.00304623      -2.71434483       0.00000000
