10
Lattice="16.28999089631971 0.0 0.0 0.0 16.28999089631971 0.0 0.0 0.0 34.642051614445585" Properties=species:S:1:pos:R:3:initial_magmoms:R:1 pbc="T T T"
Si       1.98913932      -0.39172563       1.31993219       0.00000000
Si      -0.27790740      -2.14263999      -1.13425069       0.00000000
Si      -2.09681622       0.33915780       1.22095979       0.00000000
Si       1.08087408       1.91800089      -1.28002452       0.00000000
Si       0.87275304       0.25384707       3.30869884       0.00000000
Si      -1.21200858       1.40957370       3.18689732       0.00000000
Si       0.23166009      -1.58597811      -3.44217474       0.00000000
Si       1.49182191      -3.67336242       0.12973456       0.00000000
Si      -2.67015906      -2.52938088      -1.56065994       0.00000000
Si      -2.95233444      -1.59944994       2.28031432       0.00000000
