10
Lattice="16.28999089631971 0.0 0.0 0.0 16.28999089631971 0.0 0.0 0.0 34.642051614445585" Properties=species:S:1:pos:R:3:initial_magmoms:R:1 pbc="T T T"
Si       1.76036256      -1.11806415      -1.05803813       0.00000000
Si      -0.44022096       1.54707759      -1.72205735       0.00000000
Si       1.13951808       0.79765614       1.91764648       0.00000000
Si      -2.20258719      -0.96619248       0.48204442       0.00000000
Si       1.31901759      -3.26577033      -0.19926119       0.00000000
Si      -2.67827148       2.02887063      -1.23214918       0.00000000
Si      -2.72557764       0.42380064       2.32770467       0.00000000
Si       0.96565491      -1.32058143      -3.31358337       0.00000000
Si      -0.67536711       1.63554858       3.28715147       0.00000000
Si      -3.51069048      -0.23047092      -1.40168748       0.00000000
