10
Lattice="16.28999089631971 0.0 0.0 0.0 16.28999089631971 0.0 0.0 0.0 34.642051614445585" Properties=species:S:1:pos:R:3:initial_magmoms:R:1 pbc="T T T"
Si      -1.35469269       1.35562122      -1.36378905       0.00000000
Si      -1.35845568      -1.33547049       1.38765744       0.00000000
Si       1.36259334      -1.35894438      -1.36302692       0.00000000
Si       1.36519974       1.34298018       1.40019787       0.00000000
Si       0.14064786      -2.67369399       2.73215085       0.00000000
Si      -2.71101438       2.71039536      -0.00228638       0.00000000
Si      -2.71223613      -2.71813311      -0.00575058       0.00000000
Si      -2.71236645      -0.00154755      -2.72068433       0.00000000
Si       0.00285075       2.71365336      -2.72058040       0.00000000
Si       2.72051145       2.71454931      -0.00193996       0.00000000
