10
Lattice="16.28999089631971 0.0 0.0 0.0 16.28999089631971 0.0 0.0 0.0 34.642051614445585" Properties=species:S:1:pos:R:3:initial_magmoms:R:1 pbc="T T T"
Si       1.35622395      -1.35824391      -1.36212623       0.00000000
Si      -1.36028016       1.35648459      -1.36195302       0.00000000
Si       1.34255664       1.35454608       1.38408930       0.00000000
Si      -1.35531171      -1.37156913       1.40213782       0.00000000
Si       2.58999597      -0.14698467       2.82433340       0.00000000
Si       2.71461447       2.71202436       0.00000000       0.00000000
Si      -2.71865439       2.71134018      -0.00467668       0.00000000
Si       2.71345788      -2.71759554      -0.00336028       0.00000000
Si       2.71259451      -0.00107514      -2.71916008       0.00000000
Si      -0.00228060       2.71342530      -2.71864045       0.00000000
