10
Lattice="16.28999089631971 0.0 0.0 0.0 16.28999089631971 0.0 0.0 0.0 34.642051614445585" Properties=species:S:1:pos:R:3:initial_magmoms:R:1 pbc="T T T"
Si      -1.32551730       1.28238138       1.55873384       0.00000000
Si      -1.64687013      -1.01812500      -1.50983105       0.00000000
Si       1.38629529      -1.42340391       1.55115762       0.00000000
Si       0.78535719       2.10859619      -1.36731357       0.00000000
Si      -2.76297948       2.52304474       0.02446423       0.00000000
Si       2.64675033       2.65865573       0.17589858       0.00000000
Si      -2.69943219      -2.66269824       0.08015482       0.00000000
Si       0.03476286       2.64265569       2.94428850       0.00000000
Si      -2.67703344      -0.07071489       2.94740629       0.00000000
Si       2.78303247      -2.86878303       0.20908568       0.00000000
