10
Lattice="16.28999089631971 0.0 0.0 0.0 16.28999089631971 0.0 0.0 0.0 34.642051614445585" Properties=species:S:1:pos:R:3:initial_magmoms:R:1 pbc="T T T"
Si      -1.66931775       0.35668325      -1.54597170       0.00000000
Si       1.88687070      -0.82748313      -1.05450464       0.00000000
Si       0.34124292       1.89515321       1.29592523       0.00000000
Si      -0.54203346      -1.65517803       1.64941293       0.00000000
Si       1.82773800       1.01981983       3.00571929       0.00000000
Si       0.99307098      -1.14624585       3.43005002       0.00000000
Si      -2.59579521      -1.85357394      -2.00695374       0.00000000
Si      -1.70401545       2.47541930       2.32133053       0.00000000
Si      -2.95484310      -1.70759925       1.86547552       0.00000000
Si       3.93967134       0.03028311      -0.28039292       0.00000000
