10
Lattice="16.28999089631971 0.0 0.0 0.0 16.28999089631971 0.0 0.0 0.0 34.642051614445585" Properties=species:S:1:pos:R:3:initial_magmoms:R:1 pbc="T T T"
Si      -0.91720845       1.14333387      -1.84915911       0.00000000
Si       0.81718785       1.62969462       1.51753056       0.00000000
Si       1.40064678      -1.82654883      -0.60062423       0.00000000
Si      -1.84252932      -1.13173146       1.01182561       0.00000000
Si       0.51074037       0.18916031       3.47782143       0.00000000
Si      -0.79791678       3.36214916       1.18818839       0.00000000
Si      -3.12675147      -1.71580941      -0.80296856       0.00000000
Si      -2.55920787      -0.34235064      -2.62060339       0.00000000
Si       2.35022346      -1.18412010      -2.65701220       0.00000000
Si       1.04192469      -2.10403269       2.95122731       0.00000000
