10
Lattice="16.28999089631971 0.0 0.0 0.0 16.28999089631971 0.0 0.0 0.0 34.642051614445585" Properties=species:S:1:pos:R:3:initial_magmoms:R:1 pbc="T T T"
Si       1.24020657       1.67050692       1.11779570       0.00000000
Si      -0.93191832      -1.76798628       1.35959736       0.00000000
Si       1.67363460      -1.62820179      -0.66772592       0.00000000
Si      -1.84047678       1.06847739      -1.30101762       0.00000000
Si      -1.67541021      -2.95686958      -0.62473511       0.00000000
Si       2.86013208       2.26831734      -0.52015070       0.00000000
Si       0.45341586      -3.36038591      -1.63926280       0.00000000
Si       2.45351902       0.61639731       2.92936816       0.00000000
Si      -3.48847092       1.64607192       0.32068165       0.00000000
Si       0.88472619      -2.60608723       2.77389455       0.00000000
