10
Lattice="16.28999089631971 0.0 0.0 0.0 16.28999089631971 0.0 0.0 0.0 34.642051614445585" Properties=species:S:1:pos:R:3:initial_magmoms:R:1 pbc="T T T"
Si       1.78902386       0.02184326      -1.51614488       0.00000000
Si       0.35082144       1.76047333       1.51805019       0.00000000
Si       0.33376581      -1.81062765       1.51770377       0.00000000
Si      -1.81664451       0.83810095      -1.41429719       0.00000000
Si       2.05273126      -2.30561559      -1.79393965       0.00000000
Si       3.18251933       1.58227702      -0.42668639       0.00000000
Si       1.56879283       3.22248454       0.15547361       0.00000000
Si      -3.15786537       1.68970957       0.32310660       0.00000000
Si       1.14399783      -3.46230333       0.01132796       0.00000000
Si       0.78890841       0.97788544      -3.44162047       0.00000000
