10
Lattice="16.28999089631971 0.0 0.0 0.0 16.28999089631971 0.0 0.0 0.0 34.642051614445585" Properties=species:S:1:pos:R:3:initial_magmoms:R:1 pbc="T T T"
Si      -0.54193572      -1.48310676      -1.85955173       0.00000000
Si       1.04506770      -0.59996070       2.12369752       0.00000000
Si      -1.95305697       1.47041685      -0.10368372       0.00000000
Si       1.92326649       1.14499152      -1.02474710       0.00000000
Si       1.06966397       3.28269564      -0.78530111       0.00000000
Si      -2.00277405       1.72838529      -2.56306291       0.00000000
Si       0.90346036      -3.43288944      -1.38367360       0.00000000
Si       2.81454452      -2.22679413       1.62003645       0.00000000
Si      -0.78138243      -0.02419065      -3.87270640       0.00000000
Si      -0.57485781      -1.19777112       3.76164392       0.00000000
