10
Lattice="16.28999089631971 0.0 0.0 0.0 16.28999089631971 0.0 0.0 0.0 34.642051614445585" Properties=species:S:1:pos:R:3:initial_magmoms:R:1 pbc="T T T"
Si      -1.66066776      -0.57658455       1.52026728       0.00000000
Si       1.25389017       1.33641531       1.47367370       0.00000000
Si      -1.39672089       1.51993845      -1.19851173       0.00000000
Si       1.26135099      -1.96880940      -0.67022015       0.00000000
Si       2.73314664       2.14588170      -0.21152449       0.00000000
Si      -0.38475351      -1.46109897       3.22881423       0.00000000
Si       1.70684991      -0.24638625       3.17778645       0.00000000
Si      -2.42313750       1.61183034       2.17188464       0.00000000
Si      -0.29602188       2.70640431       2.64388286       0.00000000
Si      -3.29049855       0.33207165      -1.89519842       0.00000000
