10
Lattice="16.28999089631971 0.0 0.0 0.0 16.28999089631971 0.0 0.0 0.0 34.642051614445585" Properties=species:S:1:pos:R:3:initial_magmoms:R:1 pbc="T T T"
Si       0.69687710      -1.43733186      -1.72884719       0.00000000
Si       2.00812436       1.35216774      -0.02591227       0.00000000
Si       0.49816027      -1.25503047       2.01499247       0.00000000
Si      -2.29853529       0.89415810      -0.36339532       0.00000000
Si       1.70534213       0.24490386      -3.02196642       0.00000000
Si       1.39151365       0.47543994       3.31466910       0.00000000
Si      -3.50357175      -1.16351325      -0.47379960       0.00000000
Si       2.77583948      -2.42942544      -0.71927332       0.00000000
Si       3.95490968      -0.35015355      -0.36024290       0.00000000
Si      -0.86222970      -2.83656141      -2.74237026       0.00000000
