10
Lattice="16.28999089631971 0.0 0.0 0.0 16.28999089631971 0.0 0.0 0.0 34.642051614445585" Properties=species:S:1:pos:R:3:initial_magmoms:R:1 pbc="T T T"
Si       1.35637056       1.35716877      -1.35703385       0.00000000
Si      -1.35796698      -1.35822762      -1.35679135       0.00000000
Si       1.35723393      -1.35935163       1.35876595       0.00000000
Si      -1.35622395       1.35824391       1.36212623       0.00000000
Si      -0.00017919       2.71381626      -2.71368663       0.00000000
Si       2.71384884      -0.00053757      -2.71392912       0.00000000
Si       2.71427238       2.71368594       0.00020785       0.00000000
Si      -0.00131949      -2.71507059      -2.71392912       0.00000000
Si      -2.71536381      -0.00117288      -2.71382520       0.00000000
Si      -2.71414206      -2.71524978       0.00103926       0.00000000
