10
Lattice="16.28999089631971 0.0 0.0 0.0 16.28999089631971 0.0 0.0 0.0 34.642051614445585" Properties=species:S:1:pos:R:3:initial_magmoms:R:1 pbc="T T T"
Si       1.34651718       1.36860435      -1.39115629       0.00000000
Si      -1.36616085      -1.34715042      -1.39451657       0.00000000
Si      -1.48962276       1.22346045       1.43317712       0.00000000
Si       1.60149012      -1.33001334       1.68242682       0.00000000
Si      -0.07262082       2.49735474       2.71368663       0.00000000
Si       2.69172443      -2.68946271      -0.02165129       0.00000000
Si      -2.71557558      -2.69329086      -0.02275984       0.00000000
Si       2.69764259       2.72034855      -0.02227485       0.00000000
Si      -0.00879660      -2.70267390      -2.75310931       0.00000000
Si       2.70604497       0.01185912      -2.75272824       0.00000000
