10
Lattice="16.28999089631971 0.0 0.0 0.0 16.28999089631971 0.0 0.0 0.0 34.642051614445585" Properties=species:S:1:pos:R:3:initial_magmoms:R:1 pbc="T T T"
Si      -1.67418846       0.81907749      -1.44291154       0.00000000
Si       1.31636232       1.97534169       0.20788707       0.00000000
Si       0.04971708      -0.25796844       2.45937919       0.00000000
Si       1.22139162      -1.75257594      -1.30964349       0.00000000
Si      -2.91581226       1.03887846       0.51100519       0.00000000
Si       1.46083833      -3.21149205       0.70351118       0.00000000
Si       2.00277405      -1.72838529       2.56306291       0.00000000
Si      -0.49572099       2.24595117      -2.95507258       0.00000000
Si       2.59539189      -0.30752262      -2.70582288       0.00000000
Si       3.07243802       1.55431035       1.77776180       0.00000000
