10
Lattice="16.28999089631971 0.0 0.0 0.0 16.28999089631971 0.0 0.0 0.0 34.642051614445585" Properties=species:S:1:pos:R:3:initial_magmoms:R:1 pbc="T T T"
Si      -0.83414574      -1.82241117       1.33127543       0.00000000
Si       1.83164990       0.84835062       1.33012185       0.00000000
Si      -1.81990251       1.82943216       0.02106238       0.00000000
Si       0.43225515      -0.47801376      -2.52502591       0.00000000
Si      -2.14479027      -0.49309830       2.83093068       0.00000000
Si       0.55300861       2.25067527       2.79478168       0.00000000
Si       0.76782330       1.80455733      -3.27409141       0.00000000
Si      -3.48537582       0.79855209       1.44552151       0.00000000
Si      -2.49341256      -2.96155458      -0.00169746       0.00000000
Si       2.55032072      -1.51153281      -2.55163102       0.00000000
