10
Lattice="16.28999089631971 0.0 0.0 0.0 16.28999089631971 0.0 0.0 0.0 34.642051614445585" Properties=species:S:1:pos:R:3:initial_magmoms:R:1 pbc="T T T"
Si      -1.34478837      -1.37209041      -1.34941259       0.00000000
Si       1.35639348      -1.35664749       1.36035949       0.00000000
Si      -1.35913986       1.35757602       1.36008235       0.00000000
Si       1.35301051       1.37168316      -1.38556159       0.00000000
Si      -2.68537392      -0.08044002      -2.73482176       0.00000000
Si       2.71308551       2.71305063      -0.00242494       0.00000000
Si       2.71494583      -2.71342530       0.00114319       0.00000000
Si      -2.71391400      -2.71477737       0.00530024       0.00000000
Si      -2.71301805       2.71643895       0.00017321       0.00000000
Si      -0.00071676      -2.71381626       2.71763583       0.00000000
