10
Lattice="16.28999089631971 0.0 0.0 0.0 16.28999089631971 0.0 0.0 0.0 34.642051614445585" Properties=species:S:1:pos:R:3:initial_magmoms:R:1 pbc="T T T"
Si      -1.32818886      -1.35128808       1.37745188       0.00000000
Si       1.29010284      -1.30952052      -1.50993355       0.00000000
Si       1.38639303       1.36464818       1.37668976       0.00000000
Si      -1.43682687       1.37927171      -1.39073019       0.00000000
Si       0.60147567       2.19086558      -2.48987668       0.00000000
Si       2.41036614       0.48980187      -2.68933468       0.00000000
Si      -2.69728191      -2.70278793      -0.01547115       0.00000000
Si      -2.68767081       0.00488750       2.73749959       0.00000000
Si       2.73783970      -2.69604387      -0.00828292       0.00000000
Si       0.02568933      -2.71015101       2.73736102       0.00000000
