10
Lattice="16.28999089631971 0.0 0.0 0.0 16.28999089631971 0.0 0.0 0.0 34.642051614445585" Properties=species:S:1:pos:R:3:initial_magmoms:R:1 pbc="T T T"
Si       1.35206567       1.35910728      -1.37030176       0.00000000
Si      -1.35904212      -1.36021500      -1.36687219       0.00000000
Si      -1.27707084       1.43478510       1.39268054       0.00000000
Si       1.28997252      -1.45295397       1.45662980       0.00000000
Si      -2.55469554      -0.05797611       2.65832860       0.00000000
Si       0.28764882       2.83597564       2.47521061       0.00000000
Si       2.70744917       2.69698447      -0.01042726       0.00000000
Si       2.70360473      -2.72233593       0.00200924       0.00000000
Si      -2.71818198       2.70792158       0.00135104       0.00000000
Si       2.71203969       0.00013032      -2.72685062       0.00000000
