10
Lattice="16.28999089631971 0.0 0.0 0.0 16.28999089631971 0.0 0.0 0.0 34.642051614445585" Properties=species:S:1:pos:R:3:initial_magmoms:R:1 pbc="T T T"
Si       1.65998358       1.21339323      -1.26675661       0.00000000
Si      -0.92401767      -1.53971451      -1.63489790       0.00000000
Si      -1.58104224       1.87018974       0.09398394       0.00000000
Si       2.23173000      -0.13201416       1.03053233       0.00000000
Si       0.27621324       2.35841733      -2.93962222       0.00000000
Si      -1.48844988      -3.49308099      -0.45471182       0.00000000
Si      -2.22037913       0.74702682       3.02345603       0.00000000
Si       2.02419540       1.01892321       3.08331753       0.00000000
Si      -2.46079346      -0.33655140      -2.92476077       0.00000000
Si      -3.55102778       1.02289797      -1.22068265       0.00000000
