10
Lattice="16.28999089631971 0.0 0.0 0.0 16.28999089631971 0.0 0.0 0.0 34.642051614445585" Properties=species:S:1:pos:R:3:initial_magmoms:R:1 pbc="T T T"
Si      -1.61992551      -0.59781042       1.63794640       0.00000000
Si       1.12813951       1.73653029       1.19646785       0.00000000
Si      -1.04506770       0.59996070      -2.12369752       0.00000000
Si       1.76947681      -1.62683343      -0.50366107       0.00000000
Si      -2.86013208      -2.26831734       0.52015070       0.00000000
Si       0.87819879       1.74495222      -3.14844462       0.00000000
Si       3.06567211       2.21130234      -0.09751743       0.00000000
Si      -0.40661306      -1.65192003       3.44951886       0.00000000
Si       0.73036052      -3.54190212      -1.37813087       0.00000000
Si       2.84085382      -2.09331387       1.60188400       0.00000000
