10
Lattice="16.28999089631971 0.0 0.0 0.0 16.28999089631971 0.0 0.0 0.0 34.642051614445585" Properties=species:S:1:pos:R:3:initial_magmoms:R:1 pbc="T T T"
Si      -1.35537687       1.35514881      -1.35239181       0.00000000
Si      -1.35634450      -1.35797838       1.35699920       0.00000000
Si       1.35814617       1.35674523       1.35689528       0.00000000
Si       1.35778779      -1.35674849      -1.36129482       0.00000000
Si      -0.00011403       2.71078632      -2.68466004       0.00000000
Si      -2.71092371       0.00329058      -2.69597414       0.00000000
Si      -2.71116065       2.71308321      -0.00051963       0.00000000
Si       0.00171045       2.71401174       2.71392912       0.00000000
Si      -2.71428416      -0.00073305       2.71379056       0.00000000
Si      -2.71341800      -2.71501961      -0.00010393       0.00000000
