10
Lattice="16.28999089631971 0.0 0.0 0.0 16.28999089631971 0.0 0.0 0.0 34.642051614445585" Properties=species:S:1:pos:R:3:initial_magmoms:R:1 pbc="T T T"
Si       1.35747014       1.35674523      -1.35741491       0.00000000
Si      -1.35817167      -1.35765747      -1.35706849       0.00000000
Si       1.36141231      -1.35949824       1.35682599       0.00000000
Si      -1.35952779       1.35674523       1.36157196       0.00000000
Si       2.71335200       2.71451673      -0.00093534       0.00000000
Si       2.71455746      -2.71443528      -0.00086605       0.00000000
Si      -2.71516737       2.71402803      -0.00034642       0.00000000
Si       2.71444342      -0.00043983      -2.71479518       0.00000000
Si      -2.71484157      -2.71453302      -0.00038106       0.00000000
Si      -0.00040888       2.71476108      -2.71482982       0.00000000
