10
Lattice="16.28999089631971 0.0 0.0 0.0 16.28999089631971 0.0 0.0 0.0 34.642051614445585" Properties=species:S:1:pos:R:3:initial_magmoms:R:1 pbc="T T T"
Si       1.35314514      -1.35493704      -1.35769205       0.00000000
Si       1.36127385       1.35314514       1.35938951       0.00000000
Si      -1.36141231       1.35949824      -1.35682599       0.00000000
Si      -1.37573285      -1.34182359       1.37425096       0.00000000
Si       0.16104294      -2.54498670       2.66411383       0.00000000
Si      -0.04416219       2.58877422       2.72290142       0.00000000
Si       2.71003698       0.00198738      -2.71399841       0.00000000
Si       2.71016730      -2.71459818       0.00093534       0.00000000
Si       2.71138905       2.71393029       0.00439954       0.00000000
Si      -0.00374670      -2.71352304      -2.71427554       0.00000000
