10
Lattice="16.28999089631971 0.0 0.0 0.0 16.28999089631971 0.0 0.0 0.0 34.642051614445585" Properties=species:S:1:pos:R:3:initial_magmoms:R:1 pbc="T T T"
Si       1.35112541       1.35174420       1.36888143       0.00000000
Si      -1.35563958       1.35728280      -1.36191838       0.00000000
Si       1.35952779      -1.35674523      -1.36157196       0.00000000
Si      -1.34651718      -1.36860435       1.39115629       0.00000000
Si       2.67677792      -0.12746925       2.71815546       0.00000000
Si      -2.71152144       2.71386513       0.00000000       0.00000000
Si      -2.71267803      -2.71575477      -0.00336028       0.00000000
Si      -2.71354140       0.00076563      -2.71916008       0.00000000
Si       0.00135612      -2.71440270      -2.71864045       0.00000000
Si       0.00087045       2.71552671      -2.71877901       0.00000000
