10
Lattice="16.28999089631971 0.0 0.0 0.0 16.28999089631971 0.0 0.0 0.0 34.642051614445585" Properties=species:S:1:pos:R:3:initial_magmoms:R:1 pbc="T T T"
Si      -0.72205914       1.74133584       1.34657194       0.00000000
Si      -1.62016756      -1.38906459      -0.94811884       0.00000000
Si       0.91683378      -1.56152682       1.47869680       0.00000000
Si       1.39874085       0.98901477      -1.61878933       0.00000000
Si       1.35296595       2.85757551       1.65481709       0.00000000
Si       2.97321822      -0.62441199       2.06878984       0.00000000
Si      -0.34389819      -3.16941498      -1.84829305       0.00000000
Si      -2.75433668      -0.06165765      -2.46190806       0.00000000
Si       0.60219243      -3.64242771       0.29057769       0.00000000
Si       1.20326085      -0.33269067      -3.51045426       0.00000000
