10
Lattice="16.28999089631971 0.0 0.0 0.0 16.28999089631971 0.0 0.0 0.0 34.40246978574605" Properties=species:S:1:pos:R:3:initial_magmoms:R:1 pbc="T T T"
Si      -1.29613014       1.35633798       1.39550256       0.00000000
Si       1.60971264      -1.35418770       1.13658943       0.00000000
Si      -1.68687837      -0.76939299      -1.62771937       0.00000000
Si       2.22234696      -1.40167305      -1.54804320       0.00000000
Si       2.29283379       0.96914097      -2.33964447       0.00000000
Si      -2.21198000      -0.36194751       2.73585591       0.00000000
Si       0.44893611       2.41398252       2.76853828       0.00000000
Si      -1.07046477       0.04566087      -3.81819465       0.00000000
Si       0.53727678      -2.92842072       2.73133199       0.00000000
Si      -1.54896723      -3.18829509      -1.97855595       0.00000000
