10
Lattice="16.28999089631971 0.0 0.0 0.0 16.28999089631971 0.0 0.0 0.0 34.40246978574605" Properties=species:S:1:pos:R:3:initial_magmoms:R:1 pbc="T T T"
Si       1.32486570       1.35127166       1.36069757       0.00000000
Si      -1.22249934       1.39012983      -1.43944486       0.00000000
Si      -1.39150809      -1.35828869       1.35674128       0.00000000
Si       1.38222279      -1.33852892      -1.42559442       0.00000000
Si      -2.11261752      -0.47335073      -2.65245426       0.00000000
Si      -0.43779375      -2.18850854      -2.67736751       0.00000000
Si       2.66338242      -2.70859937       0.01542264       0.00000000
Si       2.68576488      -0.00157286       2.71852940       0.00000000
Si      -2.72678310       2.68128011       0.00635758       0.00000000
Si       2.69402391       2.71736246      -0.02663441       0.00000000
