10
Lattice="16.28999089631971 0.0 0.0 0.0 16.28999089631971 0.0 0.0 0.0 34.40246978574605" Properties=species:S:1:pos:R:3:initial_magmoms:R:1 pbc="T T T"
Si      -1.29560886       1.34620560      -1.35236184       0.00000000
Si      -1.37626065      -1.32728802       1.35509684       0.00000000
Si       1.33967331       1.38730527       1.35179420       0.00000000
Si       1.50428376      -1.29115029      -1.44580244       0.00000000
Si       0.59197860       2.15710551      -2.50351110       0.00000000
Si       2.51400312       0.60548301      -2.61426097       0.00000000
Si      -0.01961316      -2.68242757       2.71237824       0.00000000
Si      -2.73432537      -2.66468757      -0.02255771       0.00000000
Si       2.72678310      -2.68128011      -0.00635758       0.00000000
Si       2.69628822       0.03178179       2.71244704       0.00000000
