10
Lattice="16.28999089631971 0.0 0.0 0.0 16.28999089631971 0.0 0.0 0.0 34.40246978574605" Properties=species:S:1:pos:R:3:initial_magmoms:R:1 pbc="T T T"
Si       1.35737565       1.35716877      -1.35765983       0.00000000
Si      -1.35697127      -1.35780408      -1.35772863       0.00000000
Si      -1.35941257       1.35682668       1.35690297       0.00000000
Si       1.36029156      -1.35865116       1.35800385       0.00000000
Si      -2.71161289       2.71453302       0.00079126       0.00000000
Si      -2.71475686      -0.00071676      -2.71463160       0.00000000
Si       2.71524489       2.71437012      -0.00061924       0.00000000
Si      -0.00026390       2.71490769      -2.71490682       0.00000000
Si       2.71340412      -2.71651877       0.00010321       0.00000000
Si      -0.00001629      -2.71509177      -2.71504443       0.00000000
