10
Lattice="16.28999089631971 0.0 0.0 0.0 16.28999089631971 0.0 0.0 0.0 34.40246978574605" Properties=species:S:1:pos:R:3:initial_magmoms:R:1 pbc="T T T"
Si      -1.04747958      -1.52052326       1.46967433       0.00000000
Si      -1.27738035       1.25017605      -1.57167771       0.00000000
Si       0.86861538       1.77228684       1.52072762       0.00000000
Si       1.45461555      -1.45738974      -1.54229798       0.00000000
Si       2.58121566       2.67020793      -0.01799250       0.00000000
Si      -2.64575664       2.64222171      -0.16399667       0.00000000
Si      -2.55608019      -2.81499723       0.00732773       0.00000000
Si      -0.90484434       3.59104905       1.07201596       0.00000000
Si       0.09923868       2.60817561      -2.94966941       0.00000000
Si      -2.61373050      -0.10840995      -2.94884375       0.00000000
