10
Lattice="16.28999089631971 0.0 0.0 0.0 16.28999089631971 0.0 0.0 0.0 34.40246978574605" Properties=species:S:1:pos:R:3:initial_magmoms:R:1 pbc="T T T"
Si       0.25295112       0.20548206       2.36885219       0.00000000
Si      -2.06218368      -1.22398173      -0.02294646       0.00000000
Si       2.20527504      -0.51331419      -0.89776735       0.00000000
Si      -0.14496471       1.86808833      -1.67701813       0.00000000
Si       0.10321344       2.54780487       2.69890967       0.00000000
Si       1.89758952       3.00250764      -1.28844202       0.00000000
Si      -1.96380837       3.12912981      -0.96657233       0.00000000
Si      -1.49198481      -3.48342821       0.47606164       0.00000000
Si      -3.28290741      -0.44738856       1.92375278       0.00000000
Si       2.45094453      -0.44843112       2.96831556       0.00000000
