10
Lattice="16.28999089631971 0.0 0.0 0.0 16.28999089631971 0.0 0.0 0.0 34.40246978574605" Properties=species:S:1:pos:R:3:initial_magmoms:R:1 pbc="T T T"
Si      -1.42804234      -0.81460263       1.67667411       0.00000000
Si       2.06814093       1.15665679       0.32964465       0.00000000
Si      -1.66763566       1.70483158      -0.41757741       0.00000000
Si       0.46360851      -2.06916136      -1.31052842       0.00000000
Si       3.04682784       0.21512900      -1.79660118       0.00000000
Si      -0.00861089      -2.44342411       2.67204132       0.00000000
Si       1.53822723      -1.07934497      -3.25894778       0.00000000
Si       1.26020580       3.50376886       0.58914262       0.00000000
Si      -2.67259834      -2.71266523       0.56399440       0.00000000
Si      -2.98927594       1.01486863      -2.26423422       0.00000000
