10
Lattice="16.28999089631971 0.0 0.0 0.0 16.28999089631971 0.0 0.0 0.0 34.40246978574605" Properties=species:S:1:pos:R:3:initial_magmoms:R:1 pbc="T T T"
Si       1.28923947      -1.34486982       1.41581379       0.00000000
Si      -0.81217053      -1.94434182      -1.10323691       0.00000000
Si       1.67342283       0.93807594      -1.41467305       0.00000000
Si      -1.41833772       1.36218609       1.37454457       0.00000000
Si       0.49599792       1.15312023      -3.50073677       0.00000000
Si       2.78016543      -2.48062491       0.04831830       0.00000000
Si       2.64751596       0.00342090       2.75530223       0.00000000
Si      -2.69975799      -2.75524173       0.04791235       0.00000000
Si       1.10985399      -3.49596432      -1.21398678       0.00000000
Si      -0.06447582      -2.71414206       2.75206839       0.00000000
