10
Lattice="16.28999089631971 0.0 0.0 0.0 16.28999089631971 0.0 0.0 0.0 34.40246978574605" Properties=species:S:1:pos:R:3:initial_magmoms:R:1 pbc="T T T"
Si      -1.35651717       1.35848826       1.35655895       0.00000000
Si      -1.35708732      -1.35770634      -1.35783184       0.00000000
Si       1.35757602       1.35806472      -1.35741901       0.00000000
Si       1.35879777      -1.35798327       1.36254498       0.00000000
Si       2.68798032       0.03629412       2.72405788       0.00000000
Si      -0.00760743       2.71942002       2.70365721       0.00000000
Si      -2.71453302       2.71492398      -0.00123849       0.00000000
Si      -2.71441899       0.00022806      -2.71545726       0.00000000
Si       0.00061902       2.71508688      -2.71518204       0.00000000
Si       0.00011403      -2.71491421      -2.71545726       0.00000000
