10
Lattice="16.28999089631971 0.0 0.0 0.0 16.28999089631971 0.0 0.0 0.0 34.40246978574605" Properties=species:S:1:pos:R:3:initial_magmoms:R:1 pbc="T T T"
Si       1.34890974       1.36093176       1.34709826       0.00000000
Si       1.35651717      -1.35848826      -1.35655895       0.00000000
Si      -1.35801585       1.35643572      -1.35779744       0.00000000
Si      -1.37661903      -1.35799956       1.37799170       0.00000000
Si      -0.03311757       2.70689301       2.68490785       0.00000000
Si       2.71393029       2.71352304       0.00258019       0.00000000
Si       2.71409319      -0.00042354      -2.71397796       0.00000000
Si      -0.00048870       2.71368594      -2.71504443       0.00000000
Si      -2.71296918      -2.71658556       0.00082566       0.00000000
Si      -0.00057015      -2.71619460      -2.71439079       0.00000000
