10
Lattice="16.28999089631971 0.0 0.0 0.0 16.28999089631971 0.0 0.0 0.0 34.40246978574605" Properties=species:S:1:pos:R:3:initial_magmoms:R:1 pbc="T T T"
Si       1.17742491      -0.21504429       2.08606373       0.00000000
Si       0.39008034       1.88160903      -1.50177185       0.00000000
Si       1.06551261      -1.75275513      -1.36636366       0.00000000
Si      -2.56018527      -0.04044807       0.11280576       0.00000000
Si      -1.51239618       3.18065508      -0.81564861       0.00000000
Si      -0.49599792      -1.15312023       3.50073677       0.00000000
Si      -2.98320399       1.40994837      -1.74214204       0.00000000
Si       3.30620211      -0.85954185      -1.60463529       0.00000000
Si      -3.22372584      -2.21649885      -0.51194344       0.00000000
Si      -1.44459720      -3.67989471       0.13251839       0.00000000
