10
Lattice="16.28999089631971 0.0 0.0 0.0 16.28999089631971 0.0 0.0 0.0 34.40246978574605" Properties=species:S:1:pos:R:3:initial_magmoms:R:1 pbc="T T T"
Si      -1.36502055      -1.35259128       1.34451808       0.00000000
Si       1.35985662      -1.35617508      -1.36082486       0.00000000
Si      -1.35782037       1.35816246      -1.36110008       0.00000000
Si       1.37533212       1.36620972       1.35377235       0.00000000
Si       2.48894910      -0.04487895       2.90195316       0.00000000
Si      -2.71010214       2.70998811      -0.00075685       0.00000000
Si       2.71401174      -2.71147050      -0.00116968       0.00000000
Si      -2.71393029      -2.71352304      -0.00258019       0.00000000
Si       2.72062548       2.70847314      -0.00237377       0.00000000
Si      -2.74704786      -0.00663003       2.68232767       0.00000000
