10
Lattice="16.28999089631971 0.0 0.0 0.0 16.28999089631971 0.0 0.0 0.0 34.40246978574605" Properties=species:S:1:pos:R:3:initial_magmoms:R:1 pbc="T T T"
Si       0.95568543      -1.47289293      -1.59297285       0.00000000
Si      -1.84008582       1.10776887      -1.00582557       0.00000000
Si       1.35415512       1.98708678       0.42810457       0.00000000
Si       0.19701126      -1.79944227       1.68262574       0.00000000
Si       2.41442235      -0.00772146      -2.68948338       0.00000000
Si      -0.67090365       2.38622436      -2.68869213       0.00000000
Si       1.15665516       2.03128155       2.90102429       0.00000000
Si      -1.96735959      -2.88492642       1.48942136       0.00000000
Si       1.99422180      -3.15042084       0.89160931       0.00000000
Si      -2.33194608       3.05387001       0.33931175       0.00000000
