10
Lattice="16.28999089631971 0.0 0.0 0.0 16.28999089631971 0.0 0.0 0.0 34.40246978574605" Properties=species:S:1:pos:R:3:initial_magmoms:R:1 pbc="T T T"
Si      -0.52797519       2.28696939      -0.02476979       0.00000000
Si      -1.98747774      -1.01199996       0.76084545       0.00000000
Si       1.72331910      -0.50207409       1.57074884       0.00000000
Si       0.22099014      -0.34292079      -2.48351568       0.00000000
Si       2.95565760       1.54896723       1.34558455       0.00000000
Si      -1.94338071      -1.42840494      -2.67672006       0.00000000
Si      -1.38522015      -3.31993458       0.70366851       0.00000000
Si      -3.49713720      -0.72011574      -1.09327670       0.00000000
Si      -2.69234604       0.12766473       2.69976973       0.00000000
Si      -2.87046090       2.58339852      -0.36986116       0.00000000
