10
Lattice="16.28999089631971 0.0 0.0 0.0 16.28999089631971 0.0 0.0 0.0 34.40246978574605" Properties=species:S:1:pos:R:3:initial_magmoms:R:1 pbc="T T T"
Si      -0.90837927      -1.83073536       1.18077668       0.00000000
Si       1.82001654       0.84997962       1.25177309       0.00000000
Si       1.43251002       0.12714345      -1.88017588       0.00000000
Si      -1.67482377       1.71515781       0.02491325       0.00000000
Si       0.43779375       2.18850854       2.67736751       0.00000000
Si      -2.30684319      -0.54183798       2.66587364       0.00000000
Si      -1.88260272       2.40434766      -2.23331743       0.00000000
Si      -0.78470559       3.57863837       1.23792265       0.00000000
Si      -2.51387280      -2.93749425      -0.34830185       0.00000000
Si       2.86798482      -1.67884740      -2.18742451       0.00000000
