10
Lattice="16.28999089631971 0.0 0.0 0.0 16.28999089631971 0.0 0.0 0.0 34.40246978574605" Properties=species:S:1:pos:R:3:initial_magmoms:R:1 pbc="T T T"
Si       1.57239225      -0.63473985       1.62403830       0.00000000
Si      -1.79090631      -1.55821995       0.14548813       0.00000000
Si      -0.39921903       2.35478696       0.00691490       0.00000000
Si       1.22614830      -0.37476774      -2.04684489       0.00000000
Si      -0.29963826      -1.79136243      -3.14885982       0.00000000
Si      -1.15108398      -3.17154897      -1.45976641       0.00000000
Si      -3.43223458      -0.79706970      -1.38380572       0.00000000
Si       1.17086004       3.37625630      -1.41435513       0.00000000
Si       1.39592268       1.76239881      -3.13939913       0.00000000
Si      -1.99156653       3.12768230      -1.55323798       0.00000000
