10
Lattice="16.28999089631971 0.0 0.0 0.0 16.28999089631971 0.0 0.0 0.0 34.40246978574605" Properties=species:S:1:pos:R:3:initial_magmoms:R:1 pbc="T T T"
Si      -1.35742941       1.35761010      -1.35717819       0.00000000
Si       1.35793440      -1.35695617      -1.35738461       0.00000000
Si      -1.35637056      -1.35822679       1.35769423       0.00000000
Si       1.35814617       1.35728267       1.35783184       0.00000000
Si      -0.00260640      -2.71003615       2.71256745       0.00000000
Si      -2.71441899      -2.71412494      -0.00003440       0.00000000
Si       0.00153126      -2.71412494      -2.71507884       0.00000000
Si       2.71551042       0.00093162       2.71384035       0.00000000
Si      -2.71518462       0.00187923      -2.71418437       0.00000000
Si       2.71552671      -2.71391317      -0.00034402       0.00000000
