10
Lattice="16.28999089631971 0.0 0.0 0.0 16.28999089631971 0.0 0.0 0.0 34.40246978574605" Properties=species:S:1:pos:R:3:initial_magmoms:R:1 pbc="T T T"
Si      -1.35736425       1.35635105      -1.35600851       0.00000000
Si       1.36832742       1.33747257       1.36667328       0.00000000
Si       1.35713619      -1.35987517      -1.35814146       0.00000000
Si      -1.37717289      -1.35317998       1.35463241       0.00000000
Si       2.70606222      -2.70909442       0.00020641       0.00000000
Si      -0.07522722      -2.66757121       2.74886208       0.00000000
Si       2.71352304       2.71364199       0.00048163       0.00000000
Si       2.71331127      -0.00035321      -2.71390915       0.00000000
Si       0.00017919       2.71378860      -2.71401236       0.00000000
Si      -2.71425609       2.71360941       0.00698371       0.00000000
