10
Lattice="16.28999089631971 0.0 0.0 0.0 16.28999089631971 0.0 0.0 0.0 34.40246978574605" Properties=species:S:1:pos:R:3:initial_magmoms:R:1 pbc="T T T"
Si      -1.47688398       1.27001727      -1.24660859       0.00000000
Si      -1.40502879      -0.35243415       1.81277035       0.00000000
Si       1.27651698      -1.50039697      -1.24843192       0.00000000
Si       1.69225407       0.86804523       1.39123666       0.00000000
Si      -1.36391283      -2.63079427       2.12542017       0.00000000
Si      -0.09343944       2.59426395      -2.61269703       0.00000000
Si       2.62171260      -0.12422754      -2.61462357       0.00000000
Si       2.69535969       2.66268195       0.20472921       0.00000000
Si      -2.80606653      -0.12426012      -2.60812150       0.00000000
Si       2.70267390      -2.74120236       0.27859136       0.00000000
