10
Lattice="16.28999089631971 0.0 0.0 0.0 16.28999089631971 0.0 0.0 0.0 34.40246978574605" Properties=species:S:1:pos:R:3:initial_magmoms:R:1 pbc="T T T"
Si      -0.06704964      -1.08970556      -2.06476859       0.00000000
Si       1.59234750      -0.77289534       1.56015288       0.00000000
Si      -1.76082682       0.60199532       1.47232332       0.00000000
Si       0.51220647       2.27156394      -0.63881982       0.00000000
Si       3.16242657       0.24857400       0.13888285       0.00000000
Si       2.15365203       2.27620659       1.03434523       0.00000000
Si       1.30701186       1.14879198       2.96164147       0.00000000
Si      -0.72501903       2.36392824       2.55906355       0.00000000
Si      -1.94888673      -0.04594594      -3.08180937       0.00000000
Si      -3.49567829       1.14208050      -0.02941413       0.00000000
