10
Lattice="16.28999089631971 0.0 0.0 0.0 16.28999089631971 0.0 0.0 0.0 34.40246978574605" Properties=species:S:1:pos:R:3:initial_magmoms:R:1 pbc="T T T"
Si      -0.31128561       1.95067863      -1.25538123       0.00000000
Si       1.52174664       0.01606194       1.80530501       0.00000000
Si      -2.04255423      -1.13441931      -0.38857611       0.00000000
Si       1.11198798      -1.90260684      -1.27946297       0.00000000
Si       0.30768552      -3.51582183       0.39067467       0.00000000
Si       0.20618253       0.84527181       3.63548303       0.00000000
Si      -1.89758952      -3.00250764       1.28844202       0.00000000
Si      -3.86139789       0.12662217       0.32186969       0.00000000
Si       0.25013295       1.66535928      -3.49477685       0.00000000
Si       2.81706228       2.70962973       0.00120409       0.00000000
