10
Lattice="16.28999089631971 0.0 0.0 0.0 16.28999089631971 0.0 0.0 0.0 34.40246978574605" Properties=species:S:1:pos:R:3:initial_magmoms:R:1 pbc="T T T"
Si       1.29590208      -0.58282362       1.87631175       0.00000000
Si       1.31556411      -0.82920987      -1.83017801       0.00000000
Si      -2.00055861      -1.29997458       0.35186866       0.00000000
Si      -0.81234972       2.29723209      -0.04558330       0.00000000
Si       3.54843441      -0.15244182       1.12922730       0.00000000
Si      -0.20618253      -0.84527181      -3.63548303       0.00000000
Si      -1.63326798       2.56565871       2.19900710       0.00000000
Si       1.05933870      -2.91783222       2.38715431       0.00000000
Si      -2.36338578      -1.59469326       2.71800305       0.00000000
Si      -3.92088897      -0.52062840      -0.91266363       0.00000000
