10
Lattice="16.28999089631971 0.0 0.0 0.0 16.28999089631971 0.0 0.0 0.0 34.40246978574605" Properties=species:S:1:pos:R:3:initial_magmoms:R:1 pbc="T T T"
Si      -1.29590208       0.58282362      -1.87631175       0.00000000
Si      -0.29647800       1.11887865       2.05107639       0.00000000
Si      -0.23656338      -2.33500860       0.51084256       0.00000000
Si       2.25253233       0.43038180      -0.74708445       0.00000000
Si       1.70838117       0.44756775       3.10733601       0.00000000
Si      -3.29646069      -0.71715096      -1.52444309       0.00000000
Si       0.01966203      -0.24638625      -3.70648976       0.00000000
Si      -0.73669896       3.36831588       1.38401213       0.00000000
Si       3.36512304       0.64733202       1.45725503       0.00000000
Si       3.15208242      -1.65654639      -1.44590221       0.00000000
