10
Lattice="16.28999089631971 0.0 0.0 0.0 16.28999089631971 0.0 0.0 0.0 34.40246978574605" Properties=species:S:1:pos:R:3:initial_magmoms:R:1 pbc="T T T"
Si      -1.67342283      -0.93807594       1.41467305       0.00000000
Si      -1.17742491       0.21504429      -2.08606373       0.00000000
Si       0.98329698       1.88693586       1.31038534       0.00000000
Si       1.84963176      -1.75166370      -0.06959624       0.00000000
Si      -0.38418336      -2.28294576       2.83048684       0.00000000
Si       2.32617942       0.43969968       2.79243769       0.00000000
Si      -0.11191230      -1.53771084      -3.45242738       0.00000000
Si      -2.48559336      -2.88241776       0.31143614       0.00000000
Si       1.10674260      -3.41870085       1.46299134       0.00000000
Si       3.59748360      -0.96045840       1.36218173       0.00000000
