10
Lattice="16.28999089631971 0.0 0.0 0.0 16.28999089631971 0.0 0.0 0.0 34.40246978574605" Properties=species:S:1:pos:R:3:initial_magmoms:R:1 pbc="T T T"
Si       1.34529336       1.34226342      -1.35614612       0.00000000
Si      -1.12925538       1.53189531       1.35294669       0.00000000
Si      -1.37533212      -1.36620972      -1.35377235       0.00000000
Si       1.11361698      -1.41108867       1.54818081       0.00000000
Si      -0.98803737      -1.89612342       2.69464376       0.00000000
Si      -2.58799230       0.06672384       2.44945722       0.00000000
Si       2.67801084      -2.71661814       0.03206312       0.00000000
Si       2.69814528      -0.00485442      -2.71363393       0.00000000
Si       2.70482418       2.70878265       0.02611149       0.00000000
Si      -0.01918962       2.70690930      -2.71208582       0.00000000
