10
Lattice="16.28999089631971 0.0 0.0 0.0 16.28999089631971 0.0 0.0 0.0 34.40246978574605" Properties=species:S:1:pos:R:3:initial_magmoms:R:1 pbc="T T T"
Si      -0.31382685      -0.91670346       2.13267910       0.00000000
Si      -2.08885041       1.02213234      -0.47802258       0.00000000
Si       1.04334192       1.96304274       0.87430486       0.00000000
Si       0.83737116      -1.32102126      -1.84786089       0.00000000
Si       1.98778725      -0.90386694       2.61108011       0.00000000
Si      -1.43392725       0.99771363       3.15708201       0.00000000
Si      -1.89135045       0.97793757      -2.95094230       0.00000000
Si      -0.72780462       2.99892384       2.02854276       0.00000000
Si       3.10668219      -2.03108607       0.87368561       0.00000000
Si       2.45285046      -0.06784785      -2.96869398       0.00000000
