10
Lattice="16.28999089631971 0.0 0.0 0.0 16.28999089631971 0.0 0.0 0.0 34.40246978574605" Properties=species:S:1:pos:R:3:initial_magmoms:R:1 pbc="T T T"
Si       0.31382685       0.91670346      -2.13267910       0.00000000
Si       2.30161410       0.01283652       0.47840101       0.00000000
Si      -1.23233850      -2.05104132       0.22516429       0.00000000
Si      -1.12010040       1.91441709       1.02440292       0.00000000
Si       1.35716877       2.87974620      -1.25837424       0.00000000
Si       2.25324909      -0.91722474       2.59546138       0.00000000
Si      -2.95565760      -1.54896723      -1.34558455       0.00000000
Si       2.82097188       2.29338765       0.47100448       0.00000000
Si      -2.05325676      -1.78261470       2.46975469       0.00000000
Si      -1.77502356       1.93883580      -2.61070168       0.00000000
