10
Lattice="16.28999089631971 0.0 0.0 0.0 16.28999089631971 0.0 0.0 0.0 34.40246978574605" Properties=species:S:1:pos:R:3:initial_magmoms:R:1 pbc="T T T"
Si       1.30194567      -1.31439123       1.39422967       0.00000000
Si      -1.34094393      -1.35778779      -1.35590530       0.00000000
Si       1.37717289       1.35317998      -1.35463241       0.00000000
Si      -1.43974278       1.17134874       1.49313683       0.00000000
Si       2.35963908       0.34432173       2.73489467       0.00000000
Si       0.10507050       1.56025524       3.38589297       0.00000000
Si      -2.68133400      -2.71969695       0.00877263       0.00000000
Si      -2.69470809      -0.00597843      -2.71077852       0.00000000
Si      -2.69702127       2.71769558       0.05373669       0.00000000
Si       0.01980864       2.70953103      -2.71064091       0.00000000
