10
Lattice="16.28999089631971 0.0 0.0 0.0 16.28999089631971 0.0 0.0 0.0 34.40246978574605" Properties=species:S:1:pos:R:3:initial_magmoms:R:1 pbc="T T T"
Si       1.15214283      -1.50009723       1.33912033       0.00000000
Si      -1.33053299      -1.41672501      -1.27996593       0.00000000
Si      -1.55988886       1.21116150       1.34740444       0.00000000
Si       1.38331422       1.32484941      -1.58800655       0.00000000
Si      -0.58760799       1.87988229      -2.77238104       0.00000000
Si       0.64568673      -2.16538083      -2.62672090       0.00000000
Si      -2.35751228       0.25317918      -2.55444127       0.00000000
Si       2.48754816      -0.13817178       2.69109342       0.00000000
Si       2.56557726       2.67154371      -0.10015253       0.00000000
Si      -0.23289324       2.58225822       2.69178147       0.00000000
