10
Lattice="16.28999089631971 0.0 0.0 0.0 16.28999089631971 0.0 0.0 0.0 34.40246978574605" Properties=species:S:1:pos:R:3:initial_magmoms:R:1 pbc="T T T"
Si      -1.30406323       1.37723805      -1.29520555       0.00000000
Si       1.32699562       1.37109672       1.34437703       0.00000000
Si      -1.38192943      -1.34524449       1.34155602       0.00000000
Si       1.55988886      -1.21116150      -1.34740444       0.00000000
Si      -2.60868046       0.02625948      -2.64895003       0.00000000
Si       0.22935587      -2.62788651      -2.62737038       0.00000000
Si       0.07249539       2.53280178      -2.78944123       0.00000000
Si       2.68876957       0.01386279       2.70100478       0.00000000
Si      -0.02505885      -2.70223407       2.70214006       0.00000000
Si       2.71203169      -2.71125873      -0.00828412       0.00000000
