10
Lattice="16.28999089631971 0.0 0.0 0.0 16.28999089631971 0.0 0.0 0.0 34.40246978574605" Properties=species:S:1:pos:R:3:initial_magmoms:R:1 pbc="T T T"
Si      -1.43547480       1.80599085       0.30724863       0.00000000
Si      -0.55959408      -1.90485486      -1.34971285       0.00000000
Si       0.45061398      -1.36575360       2.01832523       0.00000000
Si       1.59114204       1.32313896      -1.56531325       0.00000000
Si       2.32738488      -2.39798574       1.02650147       0.00000000
Si       2.62712088       1.59656661       2.09500837       0.00000000
Si      -2.53368144       2.08797075      -1.78662446       0.00000000
Si       1.40144499      -3.39560163      -0.92989928       0.00000000
Si       1.69710849      -0.02567304       3.57072520       0.00000000
Si      -2.86798482       1.67884740       2.18742451       0.00000000
