10
Lattice="16.28999089631971 0.0 0.0 0.0 16.28999089631971 0.0 0.0 0.0 34.40246978574605" Properties=species:S:1:pos:R:3:initial_magmoms:R:1 pbc="T T T"
Si      -1.35563751       1.35674824      -1.35673096       0.00000000
Si      -1.35617508      -1.35952197       1.35576769       0.00000000
Si       1.35821133      -1.35751830      -1.35741901       0.00000000
Si       1.35775521       1.35843914       1.35858869       0.00000000
Si      -0.00724905      -2.70874122       2.71411557       0.00000000
Si      -2.71184517       0.00087541      -2.71432198       0.00000000
Si      -2.71331127       0.00035321       2.71390915       0.00000000
Si      -2.71313208       2.71414181      -0.00010321       0.00000000
Si      -2.71329498      -2.71449159      -0.00027522       0.00000000
Si       0.00021177       2.71399520       2.71439079       0.00000000
