10
Lattice="16.28999089631971 0.0 0.0 0.0 16.28999089631971 0.0 0.0 0.0 34.40246978574605" Properties=species:S:1:pos:R:3:initial_magmoms:R:1 pbc="T T T"
Si      -1.42615692       1.24080539      -1.52702328       0.00000000
Si       0.88311348       2.00445453       1.05901182       0.00000000
Si      -1.81201815      -1.10552543       1.19583052       0.00000000
Si       1.27394316      -1.46481767      -1.49650827       0.00000000
Si      -2.70267390       2.74120236      -0.27859136       0.00000000
Si      -0.08096130       2.61697482      -2.89321492       0.00000000
Si      -1.01041983       3.60924759       1.11264530       0.00000000
Si       2.63894221      -0.10011104      -2.88671285       0.00000000
Si       2.71528287       2.82867966      -0.18938570       0.00000000
Si       2.10367431      -3.31853822      -0.09120100       0.00000000
