10
Lattice="16.28999089631971 0.0 0.0 0.0 16.28999089631971 0.0 0.0 0.0 34.40246978574605" Properties=species:S:1:pos:R:3:initial_magmoms:R:1 pbc="T T T"
Si       1.83216939       0.82422513      -1.24839752       0.00000000
Si       1.32164028       0.68996295       1.84665681       0.00000000
Si      -0.88311348      -2.00445453      -1.05901182       0.00000000
Si      -1.89353331       1.60479306       0.05363348       0.00000000
Si       0.38081133       1.99694223      -2.60399320       0.00000000
Si      -2.30927040      -0.76364914      -2.58603510       0.00000000
Si      -0.89042769       3.39942978      -1.13287396       0.00000000
Si       2.70603520       2.49598638       0.44303525       0.00000000
Si       2.98927594      -1.01486863       2.26423422       0.00000000
Si      -3.58578738       0.73674783      -1.33760318       0.00000000
