10
Lattice="16.28999089631971 0.0 0.0 0.0 16.28999089631971 0.0 0.0 0.0 34.40246978574605" Properties=species:S:1:pos:R:3:initial_magmoms:R:1 pbc="T T T"
Si      -0.56956356       0.43433701       2.20891501       0.00000000
Si      -1.80431298       0.57062404      -1.42250852       0.00000000
Si       0.22576311      -2.38049747       0.27339658       0.00000000
Si       1.91910861       1.27158437      -0.74340339       0.00000000
Si       2.36317401       0.04148411      -2.74091510       0.00000000
Si       1.11946509      -0.73985012       3.38228071       0.00000000
Si      -2.00699316      -3.08489336       0.74797892       0.00000000
Si      -1.10441313       2.52317439      -2.59725031       0.00000000
Si      -0.40614228       2.71178001       2.74507781       0.00000000
Si       1.42332246      -2.82739733       2.28074741       0.00000000
