10
Lattice="16.28999089631971 0.0 0.0 0.0 16.28999089631971 0.0 0.0 0.0 34.40246978574605" Properties=species:S:1:pos:R:3:initial_magmoms:R:1 pbc="T T T"
Si       1.90272087       1.29249747      -0.47963950       0.00000000
Si      -0.69989985      -1.95255035       1.17474179       0.00000000
Si      -0.87374673       1.40154273      -1.79945659       0.00000000
Si      -1.18327302       1.35918873       1.64928973       0.00000000
Si      -2.56880268      -0.53493102       1.78366585       0.00000000
Si       0.56861874       3.28010553      -1.17061349       0.00000000
Si      -0.53295993       3.47073111       0.79204850       0.00000000
Si       3.09058767       1.14256431       1.52561278       0.00000000
Si       3.02352174      -1.25159002       1.85384693       0.00000000
Si       1.10441313      -2.52317439       2.59725031       0.00000000
