10
Lattice="16.28999089631971 0.0 0.0 0.0 16.28999089631971 0.0 0.0 0.0 34.40246978574605" Properties=species:S:1:pos:R:3:initial_magmoms:R:1 pbc="T T T"
Si      -0.15553692       1.95949152      -1.13954805       0.00000000
Si      -1.65674187      -0.19976427       1.65008098       0.00000000
Si       2.30275440      -0.35302059       0.29107946       0.00000000
Si      -1.11259071      -0.21695022      -2.20433948       0.00000000
Si      -1.41400458      -2.51019126       2.18283793       0.00000000
Si       2.43698400      -1.30357467       2.39857594       0.00000000
Si      -0.21304062      -2.30387841      -2.90315724       0.00000000
Si      -3.36512304      -0.64733202      -1.45725503       0.00000000
Si      -3.66160104       0.47154663       0.59382136       0.00000000
Si       1.96931439       2.97963648      -1.40988280       0.00000000
