10
Lattice="16.28999089631971 0.0 0.0 0.0 16.28999089631971 0.0 0.0 0.0 34.40246978574605" Properties=species:S:1:pos:R:3:initial_magmoms:R:1 pbc="T T T"
Si       0.93253734      -1.71830178      -1.36223536       0.00000000
Si      -0.79386057      -0.82727136       2.15242613       0.00000000
Si      -1.77857478       1.00150920      -1.35188021       0.00000000
Si       1.75506831       1.85103270       0.06715366       0.00000000
Si       2.29552080      -0.36602001      -2.73602995       0.00000000
Si      -0.43702812       2.36380932      -2.73513549       0.00000000
Si       2.30744936      -3.04807077       0.06828894       0.00000000
Si      -2.32872066       0.77364468       3.07479126       0.00000000
Si       2.61493500      -0.20776266       2.94227287       0.00000000
Si       3.62866822       1.00936098      -1.35593970       0.00000000
