10
Lattice="16.28999089631971 0.0 0.0 0.0 16.28999089631971 0.0 0.0 0.0 34.40246978574605" Properties=species:S:1:pos:R:3:initial_magmoms:R:1 pbc="T T T"
Si      -1.35725273      -1.35734241       1.35652454       0.00000000
Si       1.35836751       1.35758387       1.35662775       0.00000000
Si      -1.35880028       1.35512571      -1.36140970       0.00000000
Si       1.35755463      -1.35553422      -1.36309542       0.00000000
Si      -2.71336265       2.71495301      -0.00027522       0.00000000
Si       0.00141253       2.71487156       2.71394355       0.00000000
Si       0.00108203      -2.71495101       2.71408116       0.00000000
Si      -2.71546406       0.00017589       2.71394355       0.00000000
Si      -2.71432376      -2.71530939      -0.00058484       0.00000000
Si       2.71572687       0.00011738       2.71449399       0.00000000
