10
Lattice="16.28999089631971 0.0 0.0 0.0 16.28999089631971 0.0 0.0 0.0 34.40246978574605" Properties=species:S:1:pos:R:3:initial_magmoms:R:1 pbc="T T T"
Si      -1.68520050      -0.37183554       1.58795009       0.00000000
Si       1.39888161       1.82693979       0.46838989       0.00000000
Si       1.60074892      -1.73838735       0.05531920       0.00000000
Si      -1.21599963       0.33811524      -2.04715451       0.00000000
Si      -0.13313817       3.15677394       1.63078119       0.00000000
Si      -1.38627900       1.55299086       2.92080572       0.00000000
Si       0.84653333      -2.97199647      -1.83389348       0.00000000
Si      -0.67559517      -1.66239450      -3.17163427       0.00000000
Si       3.68003222      -0.54753948       0.39242919       0.00000000
Si      -3.69670599       0.30962403       0.60737594       0.00000000
