10
Lattice="16.28999089631971 0.0 0.0 0.0 16.28999089631971 0.0 0.0 0.0 34.40246978574605" Properties=species:S:1:pos:R:3:initial_magmoms:R:1 pbc="T T T"
Si      -1.35149985       1.34975682       1.36005424       0.00000000
Si       1.37650192      -1.39209453       1.34555015       0.00000000
Si      -1.68751368      -0.92299140      -1.41336919       0.00000000
Si       1.00432737       1.69868277      -1.34717880       0.00000000
Si       1.84556156       0.16619058      -2.96406138       0.00000000
Si      -2.61752607      -2.54523105       0.06234763       0.00000000
Si      -2.62404207       2.69558353      -0.13193011       0.00000000
Si       0.00944820       2.70029949       2.71391259       0.00000000
Si      -2.70436806      -0.00803097       2.71718083       0.00000000
Si       2.72580311      -0.01036044       2.71222687       0.00000000
