10
Lattice="16.28999089631971 0.0 0.0 0.0 16.28999089631971 0.0 0.0 0.0 34.40246978574605" Properties=species:S:1:pos:R:3:initial_magmoms:R:1 pbc="T T T"
Si      -0.68424516       1.02402198      -2.05695922       0.00000000
Si      -0.85234167      -2.26637883      -0.33635314       0.00000000
Si       2.32756407       0.40646808       0.63445070       0.00000000
Si      -1.35878148       1.02514599       1.77210661       0.00000000
Si       1.95473484      -1.20712158       2.72725732       0.00000000
Si      -1.74193857      -0.63469098      -3.39762422       0.00000000
Si      -2.98770003      -1.86530274      -1.67251141       0.00000000
Si      -2.93881374       2.23995549      -1.40596092       0.00000000
Si       3.83756026      -0.75856014      -0.94644688       0.00000000
Si       1.12777299       2.12954741      -3.25278974       0.00000000
