10
Lattice="16.28999089631971 0.0 0.0 0.0 16.28999089631971 0.0 0.0 0.0 34.40246978574605" Properties=species:S:1:pos:R:3:initial_magmoms:R:1 pbc="T T T"
Si       2.26031473      -0.40930254      -0.37897782       0.00000000
Si      -0.58134123      -1.85450247       1.31513835       0.00000000
Si      -1.19755935       0.44689986      -2.00735083       0.00000000
Si      -0.30385737       2.08754721       1.10153330       0.00000000
Si       3.23344187       0.07540641       1.75862084       0.00000000
Si       3.02929559       1.32756984      -1.77651013       0.00000000
Si      -3.43031562      -0.25749603      -1.53276850       0.00000000
Si      -2.92846959      -1.69525143       1.67591725       0.00000000
Si      -1.99288602       3.26173434      -0.07183240       0.00000000
Si      -0.04093677      -3.85501221       0.19065859       0.00000000
