10
Lattice="16.28999089631971 0.0 0.0 0.0 16.28999089631971 0.0 0.0 0.0 34.40246978574605" Properties=species:S:1:pos:R:3:initial_magmoms:R:1 pbc="T T T"
Si      -1.43361774      -0.98137476       1.56455640       0.00000000
Si      -1.55818737       0.20758347      -1.79419301       0.00000000
Si       2.25188792      -1.09467171      -0.52683972       0.00000000
Si       0.80054177       2.26492902       0.94266260       0.00000000
Si       0.42307233      -2.18127987       2.49032737       0.00000000
Si       0.51323993       3.24473994      -1.39512414       0.00000000
Si      -0.30504654       1.81136655      -3.08421754       0.00000000
Si       2.64263615       1.03105926       2.49638221       0.00000000
Si      -2.73253347       1.17574704       2.49335479       0.00000000
Si       2.86830152      -0.27961785      -2.71731500       0.00000000
