10
Lattice="16.28999089631971 0.0 0.0 0.0 16.28999089631971 0.0 0.0 0.0 34.40246978574605" Properties=species:S:1:pos:R:3:initial_magmoms:R:1 pbc="T T T"
Si      -1.14079033       0.44862660       2.08709580       0.00000000
Si       0.80793513      -2.34711207      -0.25949797       0.00000000
Si       1.92303450       1.48493124       1.06255528       0.00000000
Si      -1.54344655       0.00708615      -2.41034159       0.00000000
Si      -2.92784147      -1.79893728      -1.00672004       0.00000000
Si      -1.89724580       2.68136658       1.77943434       0.00000000
Si       3.74187816       0.22388976       0.35210948       0.00000000
Si      -1.26020580      -3.50376886      -0.58914262       0.00000000
Si       1.92925728       1.82293245      -2.78340218       0.00000000
Si       1.51156539       3.57448212       0.08311641       0.00000000
