10
Lattice="16.28999089631971 0.0 0.0 0.0 16.28999089631971 0.0 0.0 0.0 34.40246978574605" Properties=species:S:1:pos:R:3:initial_magmoms:R:1 pbc="T T T"
Si       0.41980959      -0.67388472      -2.22604745       0.00000000
Si      -2.26206133      -0.63281763       0.37367984       0.00000000
Si       1.64784753      -1.43035974       1.00376142       0.00000000
Si       0.15001461       2.37726486       0.67201822       0.00000000
Si       2.22909102       0.72440001      -2.72319782       0.00000000
Si      -3.17623139       0.95651622       1.81411205       0.00000000
Si       0.51767991      -2.31516738       2.94492186       0.00000000
Si       1.60748091       2.24753130       2.59731912       0.00000000
Si      -3.46642145      -0.20336436      -1.65940406       0.00000000
Si       0.76330053      -3.05013960      -2.23382242       0.00000000
