10
Lattice="16.28999089631971 0.0 0.0 0.0 16.28999089631971 0.0 0.0 0.0 34.40246978574605" Properties=species:S:1:pos:R:3:initial_magmoms:R:1 pbc="T T T"
Si      -1.34787195       1.34902377       1.35796945       0.00000000
Si      -1.35602803      -1.35747828      -1.35563008       0.00000000
Si       1.35788879       1.35622395      -1.35545807       0.00000000
Si       1.35477740      -1.35668007       1.35972398       0.00000000
Si       2.70059204       0.01423746       2.72347304       0.00000000
Si      -2.71364100      -0.00022806      -2.71253305       0.00000000
Si      -2.71093686      -2.71536381       0.00326824       0.00000000
Si       0.00058644       2.71438641      -2.71232664       0.00000000
Si       0.00041214      -2.71498914      -2.71242984       0.00000000
Si       2.71567658      -0.00030951      -2.71218903       0.00000000
