10
Lattice="16.28999089631971 0.0 0.0 0.0 16.28999089631971 0.0 0.0 0.0 34.40246978574605" Properties=species:S:1:pos:R:3:initial_magmoms:R:1 pbc="T T T"
Si       1.34787195      -1.34902377      -1.35796945       0.00000000
Si      -1.36467762       1.36713825      -1.35346272       0.00000000
Si       1.33314742       1.37538099       1.38009025       0.00000000
Si      -1.36298346      -1.35228177       1.37379459       0.00000000
Si      -2.29552080       0.36602001       2.73602995       0.00000000
Si      -0.54045249       2.21705271       2.80318361       0.00000000
Si       2.70264935      -2.70570384       0.00175453       0.00000000
Si       2.70576074       0.00720018      -2.71342752       0.00000000
Si      -0.00815607      -2.70650205      -2.71359953       0.00000000
Si      -2.72981220      -2.70340695       0.00842861       0.00000000
