10
Lattice="16.28999089631971 0.0 0.0 0.0 16.28999089631971 0.0 0.0 0.0 34.40246978574605" Properties=species:S:1:pos:R:3:initial_magmoms:R:1 pbc="T T T"
Si       1.41350773       0.05797611       1.86540616       0.00000000
Si       1.04655594      -1.37085237      -1.64000105       0.00000000
Si      -1.88206419      -1.16090685       0.95982944       0.00000000
Si      -0.25375373       2.48922603      -0.47757535       0.00000000
Si      -0.02237432       2.06288415       2.20640363       0.00000000
Si      -3.40879557      -0.61950870      -0.78984675       0.00000000
Si      -0.85986669       2.05879536      -2.87511921       0.00000000
Si       2.46044975      -0.02046024      -2.90914328       0.00000000
Si      -1.47533547      -3.54312387       0.88961396       0.00000000
Si      -2.61493500       0.20776266      -2.94227287       0.00000000
