10
Lattice="16.28999089631971 0.0 0.0 0.0 16.28999089631971 0.0 0.0 0.0 34.40246978574605" Properties=species:S:1:pos:R:3:initial_magmoms:R:1 pbc="T T T"
Si      -1.41389381      -1.35039213       1.26914222       0.00000000
Si      -1.44671653       1.23758388      -1.38906930       0.00000000
Si       1.26860004      -1.47258342      -1.40365595       0.00000000
Si       1.34744364       1.16833509       1.62548320       0.00000000
Si       2.51662581       2.44679058      -0.05738335       0.00000000
Si       0.19870542      -2.95795449       2.07591499       0.00000000
Si      -0.08032599       2.59620246      -2.76561609       0.00000000
Si      -2.46044975       0.02046024       2.90914328       0.00000000
Si       2.64577293      -0.13527216      -2.76565049       0.00000000
Si       2.60882721      -2.85189030      -0.08256597       0.00000000
