10
Lattice="16.28999089631971 0.0 0.0 0.0 16.28999089631971 0.0 0.0 0.0 34.40246978574605" Properties=species:S:1:pos:R:3:initial_magmoms:R:1 pbc="T T T"
Si       0.70486830      -1.13966469      -1.93892428       0.00000000
Si       1.73793123       1.31277852       0.95714605       0.00000000
Si      -0.77195052      -1.79473446       1.39911483       0.00000000
Si      -1.50449553       1.59164703      -1.04607648       0.00000000
Si       3.59474688      -0.36131220       1.11556951       0.00000000
Si      -3.56251616       0.20274534      -1.34555015       0.00000000
Si       2.69234604      -0.12766473      -2.69976973       0.00000000
Si      -2.90950803      -1.19242800       2.17798718       0.00000000
Si       2.19263400       3.09537693      -0.56633377       0.00000000
Si       0.77543658       2.61221553       2.71521645       0.00000000
