10
Lattice="16.28999089631971 0.0 0.0 0.0 16.28999089631971 0.0 0.0 0.0 34.40246978574605" Properties=species:S:1:pos:R:3:initial_magmoms:R:1 pbc="T T T"
Si       2.13755751      -0.60230646      -0.77887235       0.00000000
Si      -1.18868849      -2.02305510       0.36322148       0.00000000
Si       0.75421560       1.23360912       1.88921268       0.00000000
Si      -1.52212850       1.30960197      -1.33774079       0.00000000
Si      -0.84653333       2.97199647       1.83389348       0.00000000
Si      -0.27451843      -3.61238895      -1.07721074       0.00000000
Si      -3.64697981       0.28945701      -1.06740603       0.00000000
Si       2.90950803       1.19242800      -2.17798718       0.00000000
Si       3.59502381      -0.73204002       1.14642854       0.00000000
Si      -0.65300813       1.39517334      -3.52353733       0.00000000
