10
Lattice="16.28999089631971 0.0 0.0 0.0 16.28999089631971 0.0 0.0 0.0 34.40246978574605" Properties=species:S:1:pos:R:3:initial_magmoms:R:1 pbc="T T T"
Si      -1.36726549      -1.33511211       1.37386684       0.00000000
Si       1.34930119       1.38173409       1.36667672       0.00000000
Si      -1.37650192       1.39209453      -1.34555015       0.00000000
Si       1.39530415      -1.39387014      -1.41553857       0.00000000
Si       2.31115401       0.32441535      -2.75589192       0.00000000
Si      -2.71392721      -2.68511328       0.01294910       0.00000000
Si      -0.00617083      -2.69094510       2.72935931       0.00000000
Si       2.72306295      -2.69824302       0.00836669       0.00000000
Si       2.70863001       0.02125845       2.72887767       0.00000000
Si      -2.72257720       0.02195892       2.72918730       0.00000000
