10
Lattice="10.86 0.0 0.0 0.0 10.86 0.0 0.0 0.0 10.86" Properties=species:S:1:pos:R:3:initial_magmoms:R:1 pbc="T T T"
Si       1.04939094       1.32470280      -1.49126262       0.00000000
Si      -1.30739196      -1.30435116      -1.45961658       0.00000000
Si      -1.36995642       1.33638816       1.51360164       0.00000000
Si       2.60114376      -0.02461962      -2.66496798       0.00000000
Si       2.60114376       2.69038038       0.05003202       0.00000000
Si      -0.11385624       2.69038038      -2.66496798       0.00000000
Si      -0.11385624      -2.73961962      -2.66496798       0.00000000
Si      -0.11385624       2.69038038       2.76503202       0.00000000
Si      -2.82885624      -0.02461962      -2.66496798       0.00000000
Si      -2.82885624       2.69038038       0.05003202       0.00000000
