10
Lattice="10.86 0.0 0.0 0.0 10.86 0.0 0.0 0.0 10.86" Properties=species:S:1:pos:R:3:initial_magmoms:R:1 pbc="T T T"
Si       1.25610018       1.35399222       1.25143038       0.00000000
Si      -1.45889982      -1.36100778       1.25143038       0.00000000
Si       1.36995642      -1.33638816      -1.51360164       0.00000000
Si      -1.45889982       1.35399222      -1.46356962       0.00000000
Si       2.55325116       0.09488382       2.59305306       0.00000000
Si      -0.10139982       2.71149222       2.60893038       0.00000000
Si       2.61360018       2.71149222      -0.10606962       0.00000000
Si      -0.17856012      -2.67982446       2.66615172       0.00000000
Si      -2.81639982      -0.00350778       2.60893038       0.00000000
Si       2.41934736      -0.01168536      -3.00486426       0.00000000
