10
Lattice="10.86 0.0 0.0 0.0 10.86 0.0 0.0 0.0 10.86" Properties=species:S:1:pos:R:3:initial_magmoms:R:1 pbc="T T T"
Si       1.06672350       1.22678904       1.52596032       0.00000000
Si       1.12342356      -1.37599458      -1.47133452       0.00000000
Si      -1.59157644      -1.37599458       1.24366548       0.00000000
Si      -1.59157644       1.33900542      -1.47133452       0.00000000
Si       2.29050432      -0.13241598      -2.88216798       0.00000000
Si       2.48092356      -2.73349458      -0.11383452       0.00000000
Si      -0.06803790       2.67465510       2.65829994       0.00000000
Si      -0.23407644      -2.73349458       2.60116548       0.00000000
Si       2.53123794      -0.03591402       2.81479254       0.00000000
Si       0.04102908       2.81252280      -2.69632080       0.00000000
