10
Lattice="10.86 0.0 0.0 0.0 10.86 0.0 0.0 0.0 10.86" Properties=species:S:1:pos:R:3:initial_magmoms:R:1 pbc="T T T"
Si       1.13476140      -1.44786606      -1.13233962       0.00000000
Si       1.19146146       1.37935032       1.30036554       0.00000000
Si      -1.52353854      -1.33564968       1.30036554       0.00000000
Si      -1.52353854       1.37935032      -1.41463446       0.00000000
Si       2.54896146       0.02185032       2.65786554       0.00000000
Si       2.50551060       2.77612008      -0.07200180       0.00000000
Si       2.59927584      -2.71056912       0.15649260       0.00000000
Si       0.06803790      -2.67465510      -2.65829994       0.00000000
Si      -0.16603854      -2.69314968       2.65786554       0.00000000
Si      -0.16603854       2.73685032       2.65786554       0.00000000
