10
Lattice="10.86 0.0 0.0 0.0 10.86 0.0 0.0 0.0 10.86" Properties=species:S:1:pos:R:3:initial_magmoms:R:1 pbc="T T T"
Si      -1.31404914       1.31823024      -1.34263266       0.00000000
Si      -1.31404914      -1.39676976       1.37236734       0.00000000
Si       1.40095086       1.31823024       1.37236734       0.00000000
Si      -2.50551060      -2.77612008       0.07200180       0.00000000
Si      -2.67154914       2.67573024       0.01486734       0.00000000
Si       0.04345086       2.67573024      -2.70013266       0.00000000
Si      -2.67154914      -0.03926976       2.72986734       0.00000000
Si       0.04345086       2.67573024       2.72986734       0.00000000
Si      -2.53408326       0.08848728      -2.86256568       0.00000000
Si       2.76956064      -0.09166926      -2.65591074       0.00000000
