10
Lattice="10.86 0.0 0.0 0.0 10.86 0.0 0.0 0.0 10.86" Properties=species:S:1:pos:R:3:initial_magmoms:R:1 pbc="T T T"
Si       1.35750000       1.35750000       1.35750000       0.00000000
Si       1.35750000      -1.35750000      -1.35750000       0.00000000
Si      -1.35750000       1.35750000      -1.35750000       0.00000000
Si      -1.35750000      -1.35750000       1.35750000       0.00000000
Si       2.37406116      -0.05837250       2.57529696       0.00000000
Si      -2.62909740      -0.28474920      -2.45727048       0.00000000
Si      -2.48344308      -2.65861488      -0.01608366       0.00000000
Si       2.63687316      -2.71036278      -0.23557512       0.00000000
Si      -2.41201686       2.93743452      -0.24482784       0.00000000
Si       2.60811588       0.13968132      -2.79004260       0.00000000
