10
Lattice="10.86 0.0 0.0 0.0 10.86 0.0 0.0 0.0 10.86" Properties=species:S:1:pos:R:3:initial_magmoms:R:1 pbc="T T T"
Si       1.27535496       1.35393792       1.30880376       0.00000000
Si      -1.43964504      -1.36106208       1.30880376       0.00000000
Si      -1.43964504       1.35393792      -1.40619624       0.00000000
Si       2.54217396      -0.22574682      -2.73801234       0.00000000
Si       2.63285496      -0.00356208       2.66630376       0.00000000
Si       2.63285496       2.71143792      -0.04869624       0.00000000
Si      -0.08214504       2.71143792       2.66630376       0.00000000
Si      -0.08214504      -2.71856208       2.66630376       0.00000000
Si      -2.56209120      -0.17339076      -2.88520878       0.00000000
Si      -2.79714504      -0.00356208       2.66630376       0.00000000
