10
Lattice="16.28999089631971 0.0 0.0 0.0 16.28999089631971 0.0 0.0 0.0 34.64500226677339" Properties=species:S:1:pos:R:3:initial_magmoms:R:1 pbc="T T T"
Si       0.30191886       2.22031071      -0.58851498       0.00000000
Si       0.66357315      -0.42650478       2.18675912       0.00000000
Si      -2.30248466      -0.46501434      -0.31450751       0.00000000
Si       1.53132516      -1.45503909      -1.11401067       0.00000000
Si      -1.79478822       2.97602010       0.24313876       0.00000000
Si      -0.09174528       1.60506999      -3.13409259       0.00000000
Si       1.51581708      -0.31441329      -3.22593654       0.00000000
Si      -0.07545528      -2.62083294       2.62768631       0.00000000
Si      -0.37330164       1.20796866       3.53826141       0.00000000
Si       3.37139469      -1.75684392       0.42862821       0.00000000
