10
Lattice="16.28999089631971 0.0 0.0 0.0 16.28999089631971 0.0 0.0 0.0 34.64500226677339" Properties=species:S:1:pos:R:3:initial_magmoms:R:1 pbc="T T T"
Si      -1.39797522       1.26790609       1.53225230       0.00000000
Si       1.17058311       1.74424198      -1.23818332       0.00000000
Si      -1.61052714      -1.21140096      -1.40420226       0.00000000
Si       1.32040224      -1.42492839       1.51147568       0.00000000
Si      -0.80060463       3.20978812      -1.16718165       0.00000000
Si      -2.73277782       2.63405065       0.15045294       0.00000000
Si      -2.69897607      -2.70142024       0.12728234       0.00000000
Si       2.90489796      -2.62034491       0.12733085       0.00000000
Si      -0.04336398       2.63776477       2.90676235       0.00000000
Si       2.66910021      -0.08099877       2.90295140       0.00000000
