10
Lattice="16.28999089631971 0.0 0.0 0.0 16.28999089631971 0.0 0.0 0.0 34.64500226677339" Properties=species:S:1:pos:R:3:initial_magmoms:R:1 pbc="T T T"
Si      -1.33045317      -1.35069105       1.38022302       0.00000000
Si       1.35599589      -1.35262956      -1.35628331       0.00000000
Si      -1.35604476       1.36076546      -1.35711479       0.00000000
Si       1.35115776       1.34646609       1.37963405       0.00000000
Si      -2.55899610       0.09822220       2.80011458       0.00000000
Si      -0.00117288      -2.71318665      -2.71364061       0.00000000
Si       2.71381626       0.00176546      -2.71350203       0.00000000
Si      -2.71526607       2.71368742       0.00412276       0.00000000
Si       2.71270854       2.71702687       0.00782977       0.00000000
Si      -2.71611315       0.00204003      -2.71370990       0.00000000
