10
Lattice="16.28999089631971 0.0 0.0 0.0 16.28999089631971 0.0 0.0 0.0 34.64500226677339" Properties=species:S:1:pos:R:3:initial_magmoms:R:1 pbc="T T T"
Si       0.26331156      -1.42892622      -1.86521867       0.00000000
Si       1.34141634      -1.01257011       1.73408727       0.00000000
Si      -2.34699804      -0.38709927       0.62298678       0.00000000
Si       0.81736704       2.36121921       0.10875072       0.00000000
Si      -0.24079878      -0.31239333       3.43643970       0.00000000
Si      -1.24434423      -0.36279459      -3.42559580       0.00000000
Si      -1.62839727       1.85552874      -2.75663508       0.00000000
Si      -2.19364398      -1.43001765       2.79807053       0.00000000
Si       3.39249024       0.26999046       1.79686405       0.00000000
Si       2.30493726       2.43605547       1.98138343       0.00000000
