10
Lattice="16.28999089631971 0.0 0.0 0.0 16.28999089631971 0.0 0.0 0.0 34.64500226677339" Properties=species:S:1:pos:R:3:initial_magmoms:R:1 pbc="T T T"
Si      -1.34216568      -1.36640520      -1.37828290       0.00000000
Si       1.39360950      -1.28585115       1.41008703       0.00000000
Si       1.37635839       1.34770428      -1.37454123       0.00000000
Si      -1.18811115       1.55497824       1.43406138       0.00000000
Si       2.35546884       0.52088904       2.60024745       0.00000000
Si       0.84566277       2.43094041       2.78320781       0.00000000
Si      -2.68872966      -2.69948106       0.00384560       0.00000000
Si      -2.69610903       2.72813517      -0.00090077       0.00000000
Si      -2.69516421      -0.00636939      -2.73699135       0.00000000
Si       0.01769094       2.70964602      -2.73674884       0.00000000
