10
Lattice="16.28999089631971 0.0 0.0 0.0 16.28999089631971 0.0 0.0 0.0 34.64500226677339" Properties=species:S:1:pos:R:3:initial_magmoms:R:1 pbc="T T T"
Si       1.33071381       0.12870729       1.99039114       0.00000000
Si       1.31748633      -0.55798137      -1.93267253       0.00000000
Si      -0.61186869       2.30570289      -0.34755886       0.00000000
Si      -1.84655295      -1.59498648       0.20693471       0.00000000
Si      -0.08340480       0.47649879      -3.51636576       0.00000000
Si      -1.45472958      -2.24415927       2.53823286       0.00000000
Si       0.76005882      -1.76414184       3.20778255       0.00000000
Si      -1.04285322       2.47024818      -2.64261831       0.00000000
Si       3.45905118       0.47364804      -1.84418915       0.00000000
Si       1.34913780       3.72115728      -0.15254203       0.00000000
