10
Lattice="16.28999089631971 0.0 0.0 0.0 16.28999089631971 0.0 0.0 0.0 34.64500226677339" Properties=species:S:1:pos:R:3:initial_magmoms:R:1 pbc="T T T"
Si      -0.57065499      -1.89284913       1.21739141       0.00000000
Si      -1.33071381      -0.12870729      -1.99039114       0.00000000
Si       2.37842145      -0.40524633      -0.14938933       0.00000000
Si      -0.64218438       1.90972557       1.43762982       0.00000000
Si       0.67160412      -3.33923823      -0.34381719       0.00000000
Si      -0.16415433      -1.04366772       3.47975999       0.00000000
Si      -2.78544339      -2.37286656       0.54784173       0.00000000
Si      -1.94258250       2.17699560      -2.33794999       0.00000000
Si      -3.05632980       1.88307513       1.17942047       0.00000000
Si       2.52011187      -2.64244977       0.98915001       0.00000000
