10
Lattice="16.28999089631971 0.0 0.0 0.0 16.28999089631971 0.0 0.0 0.0 34.64500226677339" Properties=species:S:1:pos:R:3:initial_magmoms:R:1 pbc="T T T"
Si      -1.35532800      -1.35625653       1.35711479       0.00000000
Si       1.35773892      -1.35721764      -1.35798091       0.00000000
Si      -1.35840681       1.35853713      -1.35766911       0.00000000
Si       1.35752715       1.35975888       1.35735730       0.00000000
Si       0.00071676      -2.71391400      -2.71492247       0.00000000
Si       2.71508688      -2.71417464       0.00006929       0.00000000
Si      -2.71536381      -2.71459818       0.00027716       0.00000000
Si      -2.71546155       0.00206883      -2.71457602       0.00000000
Si      -0.00013032       2.71647153      -2.71419493       0.00000000
Si       2.71505430       2.71591767      -0.00003465       0.00000000
