10
Lattice="16.28999089631971 0.0 0.0 0.0 16.28999089631971 0.0 0.0 0.0 34.64500226677339" Properties=species:S:1:pos:R:3:initial_magmoms:R:1 pbc="T T T"
Si       1.49664375       1.38904830      -1.08681433       0.00000000
Si      -0.96954822      -1.66664619      -1.29087351       0.00000000
Si      -1.58785146       1.33817463       1.05771251       0.00000000
Si       0.97116093      -1.29064041       1.68575746       0.00000000
Si      -2.16259524      -0.04714326       2.89199318       0.00000000
Si      -2.93689152      -2.13112296      -0.12441027       0.00000000
Si       3.53950749       1.15101882       0.06433581       0.00000000
Si      -3.21853422       1.87923069      -0.55283061       0.00000000
Si       0.64664784      -3.39094269      -1.56727149       0.00000000
Si       1.53559314       0.04474863       3.54730376       0.00000000
