10
Lattice="16.28999089631971 0.0 0.0 0.0 16.28999089631971 0.0 0.0 0.0 34.64500226677339" Properties=species:S:1:pos:R:3:initial_magmoms:R:1 pbc="T T T"
Si      -1.48693491       1.80054999       0.57926476       0.00000000
Si      -1.11659805      -1.90648386       1.07649011       0.00000000
Si       2.34370746      -0.38408562       0.80577391       0.00000000
Si      -0.45598968      -0.22375944      -2.50407287       0.00000000
Si      -0.47441367      -3.81620943      -0.36113971       0.00000000
Si      -0.61502895       3.89606301      -0.29413623       0.00000000
Si      -2.41699617      -1.63921383      -2.69908970       0.00000000
Si      -3.55604184       1.58464233      -0.85933512       0.00000000
Si      -1.73079621       2.04336873       3.01966009       0.00000000
Si       2.20174011      -1.74342096       2.90896924       0.00000000
