10
Lattice="16.28999089631971 0.0 0.0 0.0 16.28999089631971 0.0 0.0 0.0 34.64500226677339" Properties=species:S:1:pos:R:3:initial_magmoms:R:1 pbc="T T T"
Si      -1.72261863       1.71440847       0.19678584       0.00000000
Si       0.24386130      -0.24281874      -2.44039532       0.00000000
Si      -0.87794955      -1.90482228       1.33363382       0.00000000
Si       2.03061366       0.83742003       1.28025970       0.00000000
Si       0.51588801       2.04335244       2.78869008       0.00000000
Si      -2.23262595      -0.67634451       2.81187453       0.00000000
Si      -2.54690892      -2.85073371      -0.08422205       0.00000000
Si      -3.51594726       0.69599025       1.33458309       0.00000000
Si      -0.80614323       3.47553666       1.39342420       0.00000000
Si       1.11576726       1.85269428      -3.31379632       0.00000000
