10
Lattice="16.28999089631971 0.0 0.0 0.0 16.28999089631971 0.0 0.0 0.0 34.64500226677339" Properties=species:S:1:pos:R:3:initial_magmoms:R:1 pbc="T T T"
Si       1.48693491      -1.80054999      -0.57926476       0.00000000
Si       0.87190596       2.09551302      -0.87340100       0.00000000
Si      -0.24386130       0.24281874       2.44039532       0.00000000
Si      -2.06910693      -0.21590766      -1.43859988       0.00000000
Si       0.37033686      -3.70703385       0.49722535       0.00000000
Si      -1.96647993       1.95722721       2.63718116       0.00000000
Si       1.03094523      -2.02430943      -3.08333763       0.00000000
Si      -1.61834634       0.77146182      -3.55447528       0.00000000
Si      -2.63596635      -2.51294427      -1.83417674       0.00000000
Si      -4.09247806       0.57910950      -0.21486842       0.00000000
