10
Lattice="16.28999089631971 0.0 0.0 0.0 16.28999089631971 0.0 0.0 0.0 34.64500226677339" Properties=species:S:1:pos:R:3:initial_magmoms:R:1 pbc="T T T"
Si       0.81353889       1.78943502      -1.43600150       0.00000000
Si       1.78644285      -1.72211364      -0.23139410       0.00000000
Si      -1.87711299      -0.96699069      -1.40887445       0.00000000
Si       0.42777540       1.30904811       2.14806063       0.00000000
Si      -0.12611718      -2.36415141       2.20300764       0.00000000
Si       2.11177044       0.37476774      -2.89646239       0.00000000
Si      -1.69218891       2.63719529       1.89224179       0.00000000
Si       0.47030859      -0.60659073       3.67129830       0.00000000
Si      -0.62384184      -2.37029274      -2.89043415       0.00000000
Si       3.59225451      -0.76527162      -1.41123031       0.00000000
