10
Lattice="16.28999089631971 0.0 0.0 0.0 16.28999089631971 0.0 0.0 0.0 34.64500226677339" Properties=species:S:1:pos:R:3:initial_magmoms:R:1 pbc="T T T"
Si      -1.82581578       0.69105438       1.31921313       0.00000000
Si      -0.59642577      -1.75756068      -1.46829066       0.00000000
Si       1.73915298      -1.12365162       1.21067028       0.00000000
Si      -0.04253319       1.91563884      -1.52323767       0.00000000
Si      -2.27665782      -2.71989243      -0.13788719       0.00000000
Si      -2.66494626      -1.41305976       1.88330338       0.00000000
Si      -0.47030859       0.60659073      -3.67129830       0.00000000
Si       3.68536815      -0.86423337      -0.18216352       0.00000000
Si      -0.95029344       1.70253306       3.26951998       0.00000000
Si      -3.34813257       2.15431992       0.06637986       0.00000000
