10
Lattice="16.28999089631971 0.0 0.0 0.0 16.28999089631971 0.0 0.0 0.0 34.64500226677339" Properties=species:S:1:pos:R:3:initial_magmoms:R:1 pbc="T T T"
Si       1.34923554      -1.35686482       1.35867381       0.00000000
Si       1.35529542       1.35785458      -1.35728801       0.00000000
Si      -1.35935163      -1.35732538      -1.35732266       0.00000000
Si      -1.36045935       1.35793603       1.36400915       0.00000000
Si       0.01138671      -2.69257966       2.73227963       0.00000000
Si       2.71342530       0.00012706      -2.71457602       0.00000000
Si       2.71588509      -2.71242088       0.00027716       0.00000000
Si      -2.71717200      -2.71172041      -0.00010394       0.00000000
Si      -0.00156384      -2.71536937      -2.71471460       0.00000000
Si      -0.00236205       2.71570753      -2.71443744       0.00000000
