10
Lattice="16.28999089631971 0.0 0.0 0.0 16.28999089631971 0.0 0.0 0.0 34.64500226677339" Properties=species:S:1:pos:R:3:initial_magmoms:R:1 pbc="T T T"
Si      -1.56517578      -1.74448633      -0.31520041       0.00000000
Si       1.99360278      -0.85678884      -1.00858587       0.00000000
Si       0.86322339       0.07868070       2.23141655       0.00000000
Si      -0.58958397       2.16204138      -0.90711060       0.00000000
Si       2.14667991       2.00440305       1.67602221       0.00000000
Si       3.29116644       1.08580995      -0.37527487       0.00000000
Si      -0.15980490      -3.43980359       0.67963139       0.00000000
Si       1.87937730      -3.31208999      -0.52850980       0.00000000
Si      -1.71641214      -1.89424681      -2.90567796       0.00000000
Si       1.82933442      -0.86775201      -3.32470950       0.00000000
