10
Lattice="16.28999089631971 0.0 0.0 0.0 16.28999089631971 0.0 0.0 0.0 34.64500226677339" Properties=species:S:1:pos:R:3:initial_magmoms:R:1 pbc="T T T"
Si      -1.35741312      -1.35552348       1.35669905       0.00000000
Si       1.35666378      -1.35720135      -1.35725337       0.00000000
Si      -1.35734796       1.35695700      -1.35805020       0.00000000
Si       1.36032903       1.35940050       1.35642189       0.00000000
Si       2.70879894       0.00117288       2.71551144       0.00000000
Si       0.00060273      -2.71340901      -2.71495712       0.00000000
Si      -2.71508688       2.71417464      -0.00006929       0.00000000
Si      -2.71437012       0.00026064      -2.71499176       0.00000000
Si       2.71432125      -2.71505430      -0.00010394       0.00000000
Si       2.71467963       2.71476108       0.00010394       0.00000000
