10
Lattice="16.28999089631971 0.0 0.0 0.0 16.28999089631971 0.0 0.0 0.0 34.64500226677339" Properties=species:S:1:pos:R:3:initial_magmoms:R:1 pbc="T T T"
Si      -1.39360950       1.28585115      -1.41008703       0.00000000
Si       0.96185934       1.80674019       1.19016043       0.00000000
Si      -0.92936079      -1.81367973       1.24826013       0.00000000
Si       1.35001746      -1.41822369      -1.41223502       0.00000000
Si       2.59875999       0.81951732       2.55489712       0.00000000
Si       2.82227508      -2.57556303       0.05823828       0.00000000
Si      -0.01725111       2.63355543      -2.78462826       0.00000000
Si      -2.58172065       2.84082939       0.02397435       0.00000000
Si       0.99966843      -3.44300553       1.43250235       0.00000000
Si       2.69044011      -0.07726347      -2.78861244       0.00000000
