10
Lattice="16.28999089631971 0.0 0.0 0.0 16.28999089631971 0.0 0.0 0.0 34.64500226677339" Properties=species:S:1:pos:R:3:initial_magmoms:R:1 pbc="T T T"
Si      -1.17460674      -1.96390611      -0.09610529       0.00000000
Si       1.08600543       0.98619660      -1.81449836       0.00000000
Si       1.02718224      -0.01945026       2.09612774       0.00000000
Si      -1.50876351       1.77354117       0.33189931       0.00000000
Si       1.80742437       2.67680538      -0.28363879       0.00000000
Si       2.73344571       1.51855380       1.48034713       0.00000000
Si      -2.31914214       1.14613182       2.45314469       0.00000000
Si      -0.55089522       1.97341947      -3.17923505       0.00000000
Si      -0.15014493       3.78017595       0.39523041       0.00000000
Si       2.45359980      -0.63755802      -3.00427770       0.00000000
