10
Lattice="16.28999089631971 0.0 0.0 0.0 16.28999089631971 0.0 0.0 0.0 34.64500226677339" Properties=species:S:1:pos:R:3:initial_magmoms:R:1 pbc="T T T"
Si       0.69113583      -0.37724382      -2.22514580       0.00000000
Si      -0.71237799       2.25673515       0.01458555       0.00000000
Si      -1.59339006      -1.73133378       0.30712812       0.00000000
Si       1.50788385       0.32586516       1.82194704       0.00000000
Si      -1.34442999       2.51590905       2.25126815       0.00000000
Si      -1.65504771      -0.63371358      -3.18328852       0.00000000
Si       3.44694771       0.95874795       0.73918618       0.00000000
Si      -2.77669566      -1.21270905       2.31629686       0.00000000
Si       0.75836466       2.15088273       3.13599807       0.00000000
Si       2.34154089      -2.08321407      -2.31550002       0.00000000
