10
Lattice="16.28999089631971 0.0 0.0 0.0 16.28999089631971 0.0 0.0 0.0 34.64500226677339" Properties=species:S:1:pos:R:3:initial_magmoms:R:1 pbc="T T T"
Si       1.59339006       1.73133378      -0.30712812       0.00000000
Si      -1.18330560       0.51862473       2.00916874       0.00000000
Si      -1.48757022      -0.07483626      -1.87263271       0.00000000
Si       1.08755298      -2.16606501      -0.18451939       0.00000000
Si      -0.96352092      -3.44862558      -0.24729616       0.00000000
Si      -0.06165765       1.09762020      -3.49041664       0.00000000
Si       2.28452589       1.35408996      -2.53227392       0.00000000
Si      -0.07521093      -0.82816731       3.58437394       0.00000000
Si      -3.20562765       1.46380311      -1.16064287       0.00000000
Si      -3.32487045      -0.51300468       1.92068535       0.00000000
