10
Lattice="16.28999089631971 0.0 0.0 0.0 16.28999089631971 0.0 0.0 0.0 34.64500226677339" Properties=species:S:1:pos:R:3:initial_magmoms:R:1 pbc="T T T"
Si      -1.34066700      -1.33674111      -1.37334598       0.00000000
Si      -1.35281934       1.36032903       1.36196509       0.00000000
Si       1.36117611      -1.35490446       1.36245012       0.00000000
Si       1.37189493       1.36283769      -1.41265422       0.00000000
Si       0.12466737      -2.62040940      -2.75692956       0.00000000
Si      -2.71094922       2.71603170      -0.00225193       0.00000000
Si       2.71560816       2.71295289      -0.00284089       0.00000000
Si      -2.71243161       0.00104256       2.71810982       0.00000000
Si       0.00223173      -2.71368594       2.71835233       0.00000000
Si      -2.71746522      -2.71531494       0.00086613       0.00000000
