10
Lattice="16.28999089631971 0.0 0.0 0.0 16.28999089631971 0.0 0.0 0.0 34.64500226677339" Properties=species:S:1:pos:R:3:initial_magmoms:R:1 pbc="T T T"
Si      -1.35752715      -1.35615879       1.35739195       0.00000000
Si       1.35718506      -1.35769005      -1.35763446       0.00000000
Si      -1.35770634       1.35738054      -1.35766911       0.00000000
Si       1.35962856       1.35755973       1.35701085       0.00000000
Si       2.70945054       0.00195480       2.71412564       0.00000000
Si       0.00167787      -2.71383255      -2.71471460       0.00000000
Si      -2.71518462       0.00055386      -2.71416028       0.00000000
Si       2.71461447       2.71489140       0.00010394       0.00000000
Si      -2.71528236       2.71471221      -0.00017323       0.00000000
Si       2.71471221      -2.71533123       0.00020787       0.00000000
