10
Lattice="16.28999089631971 0.0 0.0 0.0 16.28999089631971 0.0 0.0 0.0 34.64500226677339" Properties=species:S:1:pos:R:3:initial_magmoms:R:1 pbc="T T T"
Si       1.35922131      -1.35259128      -1.36307373       0.00000000
Si      -1.35866745       1.36194174      -1.36220761       0.00000000
Si      -1.37635839      -1.34770428       1.37454123       0.00000000
Si       1.37635839       1.37634210       1.37100744       0.00000000
Si      -2.56446954       0.20727396       2.80860261       0.00000000
Si       2.70769122      -2.71081890      -0.00398418       0.00000000
Si       0.01725111      -2.63355543       2.78462826       0.00000000
Si       2.70831024       2.72005533      -0.00547391       0.00000000
Si      -0.00110772      -2.71199178      -2.71949562       0.00000000
Si      -2.71852407      -2.71410948      -0.00374166       0.00000000
