10
Lattice="16.28999089631971 0.0 0.0 0.0 16.28999089631971 0.0 0.0 0.0 34.64500226677339" Properties=species:S:1:pos:R:3:initial_magmoms:R:1 pbc="T T T"
Si      -1.59159816       0.95215050      -1.47681334       0.00000000
Si      -1.94562873      -1.32613632       0.37811577       0.00000000
Si       1.30836393      -1.73335374      -1.24420666       0.00000000
Si       0.77763573       1.20344004       2.24371554       0.00000000
Si       0.21421350       1.90899252      -2.65664955       0.00000000
Si       2.23562331      -2.23334271       0.88133471       0.00000000
Si       2.27587590      -0.56611008       2.65588736       0.00000000
Si      -3.50415819       0.31011273       0.95758840       0.00000000
Si      -1.25571465      -2.78353746       2.03740443       0.00000000
Si       1.64610450       3.21776370      -1.08820013       0.00000000
