10
Lattice="16.28999089631971 0.0 0.0 0.0 16.28999089631971 0.0 0.0 0.0 34.64500226677339" Properties=species:S:1:pos:R:3:initial_magmoms:R:1 pbc="T T T"
Si      -0.07330500       1.05463089       2.09093099       0.00000000
Si       1.24131429       1.37181348      -1.45893651       0.00000000
Si      -2.17370502      -0.56171178      -0.78595696       0.00000000
Si       0.93152736      -2.45011374      -0.01236827       0.00000000
Si      -1.15447230      -2.57639382      -1.37069564       0.00000000
Si       1.01452491       0.05765031      -3.42860992       0.00000000
Si       1.87419708       0.44033499       3.18550580       0.00000000
Si      -1.45241640      -0.22204899       3.50860528       0.00000000
Si      -2.21244264      -2.08393083       2.31740550       0.00000000
Si       3.53045025       1.46639322      -0.86858534       0.00000000
