10
Lattice="16.28999089631971 0.0 0.0 0.0 16.28999089631971 0.0 0.0 0.0 34.64500226677339" Properties=species:S:1:pos:R:3:initial_magmoms:R:1 pbc="T T T"
Si       1.94750208      -0.61429590       1.09457481       0.00000000
Si       0.07330500      -1.05463089      -2.09093099       0.00000000
Si      -1.37911140      -1.27667988       1.41767429       0.00000000
Si      -0.80738127       2.24323074       0.29361656       0.00000000
Si       1.31545008      -0.35512200       3.33125741       0.00000000
Si       3.53009187       1.06927560       0.70159633       0.00000000
Si       1.31461929       0.31718259      -3.54986750       0.00000000
Si      -2.13913764      -3.13856172       0.22647451       0.00000000
Si      -1.12824540       2.49474834       2.70002512       0.00000000
Si      -2.85024501       2.48126022      -0.85753358       0.00000000
