10
Lattice="16.28999089631971 0.0 0.0 0.0 16.28999089631971 0.0 0.0 0.0 34.64500226677339" Properties=species:S:1:pos:R:3:initial_magmoms:R:1 pbc="T T T"
Si      -1.33784883      -1.33571484       1.37360582       0.00000000
Si      -1.34923554       1.35686482      -1.35867381       0.00000000
Si       1.36664955      -1.35555606      -1.35839665       0.00000000
Si       1.35581670       1.37510799       1.37665458       0.00000000
Si       0.14263524      -2.47575420       2.85883789       0.00000000
Si      -2.70969489       2.71480085       0.00533533       0.00000000
Si      -2.70673011      -2.71780731       0.00377631       0.00000000
Si      -2.70858717      -0.00046056      -2.71599647       0.00000000
Si       0.00605988       2.71471940      -2.71596183       0.00000000
Si       0.00632052      -2.71523349      -2.71585789       0.00000000
