10
Lattice="16.28999089631971 0.0 0.0 0.0 16.28999089631971 0.0 0.0 0.0 34.64500226677339" Properties=species:S:1:pos:R:3:initial_magmoms:R:1 pbc="T T T"
Si       1.80581166       0.95684202      -1.17983621       0.00000000
Si       1.59159816      -0.95215050       1.47681334       0.00000000
Si      -0.94327245      -1.87659171      -1.27649582       0.00000000
Si      -1.78644285       1.72211364       0.23139410       0.00000000
Si      -0.35403057      -2.27828682       1.85492910       0.00000000
Si      -1.91256003      -0.64203777       2.43440173       0.00000000
Si       0.32532759       2.09688138      -2.66506829       0.00000000
Si      -2.41028469      -0.64817910      -2.65904005       0.00000000
Si      -0.97290396       3.51154866      -1.20460740       0.00000000
Si      -3.66355584       0.75512295      -1.17748035       0.00000000
