10
Lattice="16.28999089631971 0.0 0.0 0.0 16.28999089631971 0.0 0.0 0.0 34.64500226677339" Properties=species:S:1:pos:R:3:initial_magmoms:R:1 pbc="T T T"
Si       1.36062225      -1.35438481      -1.36199974       0.00000000
Si      -1.36521603      -1.33791725       1.37381369       0.00000000
Si      -1.35539316       1.36166481      -1.36189580       0.00000000
Si       1.37283975       1.36267479       1.36920590       0.00000000
Si       0.02088378      -2.66902267       2.74592977       0.00000000
Si       2.71400700      -2.71419231      -0.00270231       0.00000000
Si       2.71416859       2.71682991      -0.00200941       0.00000000
Si       0.00034209      -2.71334469      -2.71911452       0.00000000
Si      -2.71497285       0.00169416      -2.71880272       0.00000000
Si      -2.72103273      -2.71302524      -0.00284089       0.00000000
