10
Lattice="16.28999089631971 0.0 0.0 0.0 16.28999089631971 0.0 0.0 0.0 34.64500226677339" Properties=species:S:1:pos:R:3:initial_magmoms:R:1 pbc="T T T"
Si       2.01994371       0.17153370      -1.05598026       0.00000000
Si       0.16426836       0.01096317       2.31612363       0.00000000
Si      -1.39329999      -1.83758205      -0.66185849       0.00000000
Si       0.79817742       2.20247316      -0.99060510       0.00000000
Si      -0.22656132      -3.48303725       0.70644664       0.00000000
Si       0.05004288      -2.44433798       2.79619970       0.00000000
Si      -3.54574656      -1.02649480       0.41903154       0.00000000
Si      -0.99250083       2.41168563      -2.68280654       0.00000000
Si       1.21596705       3.39330474       1.02046911       0.00000000
Si       2.11750452      -0.97760037      -3.02645051       0.00000000
