10
Lattice="16.28999089631971 0.0 0.0 0.0 16.28999089631971 0.0 0.0 0.0 34.64500226677339" Properties=species:S:1:pos:R:3:initial_magmoms:R:1 pbc="T T T"
Si       1.58632087       1.78751636      -0.04503853       0.00000000
Si       0.44569929      -1.82207790       1.56637072       0.00000000
Si       0.59823284      -1.30203594      -1.98418968       0.00000000
Si      -2.09100069       0.85531948       0.95952852       0.00000000
Si      -1.27819485      -2.64770397      -1.64626214       0.00000000
Si       2.45430746      -0.89719686       2.28962019       0.00000000
Si      -2.67059889      -0.79955460      -2.37793035       0.00000000
Si       2.29973165      -2.71965690      -1.09720783       0.00000000
Si      -2.27053278      -2.92645845       0.51780449       0.00000000
Si       3.59169155      -1.21174047       0.19764985       0.00000000
