10
Lattice="16.28999089631971 0.0 0.0 0.0 16.28999089631971 0.0 0.0 0.0 34.64500226677339" Properties=species:S:1:pos:R:3:initial_magmoms:R:1 pbc="T T T"
Si       0.68781267       1.83974373       1.38467286       0.00000000
Si      -1.87036893      -0.79892024       1.39041354       0.00000000
Si       1.66070034      -1.84412737       0.08176225       0.00000000
Si      -0.01936881      -0.32011479      -3.28351657       0.00000000
Si       1.92339660       0.41482485       2.82416312       0.00000000
Si       3.27630900      -0.92246849       1.51750188       0.00000000
Si      -0.78402141      -2.31030386       2.82427745       0.00000000
Si      -2.80715796      -2.55488192       0.19995863       0.00000000
Si       0.66096675      -3.52056941       1.43162726       0.00000000
Si       1.50923592       3.56871546      -0.02099488       0.00000000
