10
Lattice="16.28999089631971 0.0 0.0 0.0 16.28999089631971 0.0 0.0 0.0 34.64500226677339" Properties=species:S:1:pos:R:3:initial_magmoms:R:1 pbc="T T T"
Si      -1.60775784      -0.88743033       1.41258147       0.00000000
Si      -1.51254279       1.21629285      -1.35825807       0.00000000
Si       1.20966282      -1.51570305      -1.36875551       0.00000000
Si       1.42480485       1.33758819       1.48526672       0.00000000
Si       0.18292041      -1.09664280       3.10478290       0.00000000
Si       2.55099166      -0.16154793      -2.73997083       0.00000000
Si      -0.16687476       2.55319686      -2.73983225       0.00000000
Si       2.68765535       2.72319930       0.01202182       0.00000000
Si      -2.75183712      -2.65875606       0.10570196       0.00000000
Si       2.77507873      -2.72253141      -0.01974766       0.00000000
