10
Lattice="16.28999089631971 0.0 0.0 0.0 16.28999089631971 0.0 0.0 0.0 34.64500226677339" Properties=species:S:1:pos:R:3:initial_magmoms:R:1 pbc="T T T"
Si       1.44650313       1.86246828       0.05342262       0.00000000
Si      -0.41778963      -1.19083158      -2.01107422       0.00000000
Si      -1.92862197       1.17449271       0.78134917       0.00000000
Si       0.24586497      -1.43974278       1.92896551       0.00000000
Si       0.71716725       2.98770003      -1.88319944       0.00000000
Si       0.90318276       2.67384060       2.25854360       0.00000000
Si      -1.21596705      -3.39330474      -1.02046911       0.00000000
Si      -1.05169869      -3.38234157       1.29565452       0.00000000
Si      -2.85464331       2.33274429      -0.98263675       0.00000000
Si       3.67229447       1.19149947       0.50411971       0.00000000
