10
Lattice="16.28999089631971 0.0 0.0 0.0 16.28999089631971 0.0 0.0 0.0 34.64500226677339" Properties=species:S:1:pos:R:3:initial_magmoms:R:1 pbc="T T T"
Si      -1.53376866      -1.65356532       0.47720053       0.00000000
Si       2.03804190      -0.99860958      -0.42336216       0.00000000
Si      -0.92725938       0.49998897      -2.12554137       0.00000000
Si       0.04025259       1.66723263       1.77455265       0.00000000
Si       2.87178039       1.17861408      -1.01641564       0.00000000
Si      -2.23562331       2.23334271      -0.88133471       0.00000000
Si      -0.60774732      -2.81181690       2.24118645       0.00000000
Si      -3.49133796      -0.55019475       1.15606973       0.00000000
Si       2.76737778      -2.12384133       1.51325990       0.00000000
Si      -0.97541262       0.85854816       3.71609431       0.00000000
