10
Lattice="16.28999089631971 0.0 0.0 0.0 16.28999089631971 0.0 0.0 0.0 34.64500226677339" Properties=species:S:1:pos:R:3:initial_magmoms:R:1 pbc="T T T"
Si       1.36279987      -1.35376416       1.36466740       0.00000000
Si      -1.35475785       1.36399428       1.36418237       0.00000000
Si      -1.34371323      -1.35011520      -1.40981333       0.00000000
Si       1.36557441       1.36163223      -1.38132473       0.00000000
Si       2.71545570      -2.71285515       0.00682507       0.00000000
Si      -2.71560816      -2.71295289       0.00284089       0.00000000
Si      -2.71507059       2.71621089       0.00561249       0.00000000
Si       0.00234576      -2.71225242       2.72105464       0.00000000
Si       2.71899878       2.71552671       0.00294483       0.00000000
Si      -2.71360449       0.00363267       2.72140109       0.00000000
