10
Lattice="16.28999089631971 0.0 0.0 0.0 16.28999089631971 0.0 0.0 0.0 34.64500226677339" Properties=species:S:1:pos:R:3:initial_magmoms:R:1 pbc="T T T"
Si      -1.35482301      -1.35625653      -1.35659511       0.00000000
Si      -1.35700587       1.35703845       1.35728801       0.00000000
Si       1.35817875      -1.35811359       1.35718408       0.00000000
Si       1.35884664       1.36036161      -1.35721872       0.00000000
Si      -2.71199178      -0.00029322       2.71419493       0.00000000
Si       0.00325800      -2.71275741       2.71447209       0.00000000
Si      -2.71412577       2.71376739      -0.00024252       0.00000000
Si      -0.00146610       2.71257822      -2.71578860       0.00000000
Si      -2.71443528      -2.71554300      -0.00045039       0.00000000
Si       2.71542897       2.71463076       0.00038110       0.00000000
