10
Lattice="16.28999089631971 0.0 0.0 0.0 16.28999089631971 0.0 0.0 0.0 34.64500226677339" Properties=species:S:1:pos:R:3:initial_magmoms:R:1 pbc="T T T"
Si       1.33888665       1.35720715      -1.38088127       0.00000000
Si      -1.37463165      -1.35824391      -1.38070805       0.00000000
Si      -1.35423657       1.40237680       1.36775081       0.00000000
Si       1.52520079      -1.26159534       1.46666235       0.00000000
Si       0.29030409       2.67306098       2.42871995       0.00000000
Si      -0.13067838      -2.35633221       2.79619970       0.00000000
Si       2.69815084      -2.71189404      -0.01500129       0.00000000
Si       2.70721785       2.70660209      -0.00976990       0.00000000
Si      -2.74344777      -2.69373069      -0.01015099       0.00000000
Si       2.69813781       0.00242721      -2.73955509       0.00000000
