10
Lattice="16.28999089631971 0.0 0.0 0.0 16.28999089631971 0.0 0.0 0.0 34.64500226677339" Properties=species:S:1:pos:R:3:initial_magmoms:R:1 pbc="T T T"
Si       1.16739027       1.21098559      -1.67851665       0.00000000
Si      -0.69887358       1.62168809       1.74704451       0.00000000
Si      -1.43189100      -1.30877118      -1.56844942       0.00000000
Si       0.46786509      -0.02376711       3.11534963       0.00000000
Si       2.57378742      -0.66225366       1.91306345       0.00000000
Si       2.39094846      -2.54772342      -0.25006777       0.00000000
Si      -1.64610450      -3.21776370       1.08820013       0.00000000
Si       2.81193093       2.48166977      -0.61754751       0.00000000
Si       2.52162684      -0.19139121      -3.04626746       0.00000000
Si      -3.23770266      -2.26561320      -0.38861321       0.00000000
