10
Lattice="16.28999089631971 0.0 0.0 0.0 16.28999089631971 0.0 0.0 0.0 34.64500226677339" Properties=species:S:1:pos:R:3:initial_magmoms:R:1 pbc="T T T"
Si       1.87642769       1.34566803      -0.33792754       0.00000000
Si      -0.99233793      -0.27875448       2.16406663       0.00000000
Si      -1.39240404       1.84814937      -0.73166821       0.00000000
Si       0.46581255      -2.06166240      -1.27050223       0.00000000
Si       1.27819485       2.64770397       1.64626214       0.00000000
Si      -1.66900824       0.80945010      -2.82142127       0.00000000
Si      -2.53785168      -1.98052191       1.39553612       0.00000000
Si       3.57792650      -0.07195293       0.54905430       0.00000000
Si       2.59804553      -1.19966076       2.38482471       0.00000000
Si       1.72389414       0.82562607       3.21263286       0.00000000
