10
Lattice="16.28999089631971 0.0 0.0 0.0 16.28999089631971 0.0 0.0 0.0 34.64500226677339" Properties=species:S:1:pos:R:3:initial_magmoms:R:1 pbc="T T T"
Si      -0.41922315      -0.62428167      -2.24302264       0.00000000
Si       0.89940348       2.19146831       0.01836186       0.00000000
Si       1.33358085      -1.72313991       1.06471080       0.00000000
Si      -2.34916461       0.10177992       1.20952700       0.00000000
Si      -1.10807838      -2.84449464      -1.67650724       0.00000000
Si      -2.93433399       1.96951706      -0.12901806       0.00000000
Si       0.45647838      -3.63662847      -0.05300688       0.00000000
Si      -1.09630071       3.47849234      -0.40777190       0.00000000
Si      -0.08171064      -1.87458804       3.28445199       0.00000000
Si       2.64582180       2.37295520      -1.62211456       0.00000000
