10
Lattice="16.28999089631971 0.0 0.0 0.0 16.28999089631971 0.0 0.0 0.0 34.64500226677339" Properties=species:S:1:pos:R:3:initial_magmoms:R:1 pbc="T T T"
Si       2.20929053      -0.23296329       0.73256898       0.00000000
Si       0.10574653       0.95319306      -2.14972359       0.00000000
Si      -0.99543629      -2.10926178      -0.39159268       0.00000000
Si      -1.39906339       1.36441782       1.37121531       0.00000000
Si      -2.66336517       2.43553419      -0.39529970       0.00000000
Si       0.31275985      -2.79966456      -2.30358213       0.00000000
Si       1.93480402      -1.29484323       2.88759326       0.00000000
Si      -2.12004480       1.62416187      -2.60042068       0.00000000
Si      -3.32068296      -1.67804919      -0.72487779       0.00000000
Si      -0.47555234      -3.48887817       1.45477910       0.00000000
