10
Lattice="16.28999089631971 0.0 0.0 0.0 16.28999089631971 0.0 0.0 0.0 34.64500226677339" Properties=species:S:1:pos:R:3:initial_magmoms:R:1 pbc="T T T"
Si       1.35602847      -1.35645268       1.35888168       0.00000000
Si      -1.35969372       1.35807124       1.35777304       0.00000000
Si       1.35651717       1.34702662      -1.37385180       0.00000000
Si      -1.35687555      -1.36440296      -1.36152163       0.00000000
Si      -2.72146441       0.03920188      -2.65349685       0.00000000
Si       0.05551632      -2.62229971      -2.77882175       0.00000000
Si       2.71184517      -0.00012218       2.71551144       0.00000000
Si       2.71112841       2.71688530       0.00065826       0.00000000
Si      -0.00231318       2.71401826       2.71523428       0.00000000
Si       2.71013472      -2.72075647      -0.00006929       0.00000000
