10
Lattice="16.28999089631971 0.0 0.0 0.0 16.28999089631971 0.0 0.0 0.0 34.64500226677339" Properties=species:S:1:pos:R:3:initial_magmoms:R:1 pbc="T T T"
Si       2.13524433      -0.38678976       0.81786503       0.00000000
Si      -1.06644833       2.10009051      -0.40292160       0.00000000
Si       0.41127852      -1.08859554      -2.30223098       0.00000000
Si      -0.60923690       0.34647201       2.55229874       0.00000000
Si       2.94101289       2.03173767       0.37066709       0.00000000
Si      -3.16857509       1.41077916      -1.28664681       0.00000000
Si       3.21189930      -2.22420402      -0.26091166       0.00000000
Si      -0.08212946       3.35402955      -2.16559101       0.00000000
Si      -2.39719472       2.12630112       2.53133851       0.00000000
Si      -0.39142331      -3.36087135      -2.35069936       0.00000000
