10
Lattice="16.28999089631971 0.0 0.0 0.0 16.28999089631971 0.0 0.0 0.0 34.64500226677339" Properties=species:S:1:pos:R:3:initial_magmoms:R:1 pbc="T T T"
Si      -1.35587541      -1.35508365       1.35964387       0.00000000
Si      -1.35672249       1.35728280      -1.35673369       0.00000000
Si       1.35752938      -1.35721764      -1.35669905       0.00000000
Si       1.35911766       1.35946566       1.35867381       0.00000000
Si      -2.71350030       0.00167787      -2.71249732       0.00000000
Si       0.00182260      -2.71409319      -2.71322487       0.00000000
Si       0.00373162       2.71577106      -2.71312093       0.00000000
Si       2.71518197       0.00146610      -2.71374454       0.00000000
Si      -2.71446141      -2.71484253       0.00083148       0.00000000
Si      -2.71449399       2.71505430       0.00079684       0.00000000
