10
Lattice="16.28999089631971 0.0 0.0 0.0 16.28999089631971 0.0 0.0 0.0 34.64500226677339" Properties=species:S:1:pos:R:3:initial_magmoms:R:1 pbc="T T T"
Si      -1.35621092      -1.35583299       1.35808485       0.00000000
Si      -1.35661654       1.35641943      -1.35711479       0.00000000
Si       1.35690813      -1.35736425      -1.35742659       0.00000000
Si       1.35938421       1.35775521       1.35739195       0.00000000
Si      -2.71159696       0.00047241      -2.71370990       0.00000000
Si      -0.00014661      -2.71383255      -2.71433351       0.00000000
Si       2.71518462       0.00057015      -2.71395241       0.00000000
Si      -2.71497066       2.71463076       0.00013858       0.00000000
Si       2.71508688       2.71472850       0.00003465       0.00000000
Si       2.71389771       0.00047241       2.71599647       0.00000000
