10
Lattice="16.28999089631971 0.0 0.0 0.0 16.28999089631971 0.0 0.0 0.0 34.64500226677339" Properties=species:S:1:pos:R:3:initial_magmoms:R:1 pbc="T T T"
Si       0.73902843       2.19432816      -0.44092719       0.00000000
Si       0.97125867      -0.84478311       2.00830261       0.00000000
Si      -2.36347442       0.13918176       0.34087237       0.00000000
Si       0.78506397      -1.49680665      -1.69414156       0.00000000
Si      -0.99608463      -1.30925988       3.17476585       0.00000000
Si      -2.38399982       0.58033125       2.61919828       0.00000000
Si       0.07545528       2.62083294      -2.62768631       0.00000000
Si       3.05856153       2.17082169      -0.17786754       0.00000000
Si      -3.19906997      -2.02960368       0.11266561       0.00000000
Si      -0.42995826      -3.51194481      -1.64175828       0.00000000
