10
Lattice="16.28999089631971 0.0 0.0 0.0 16.28999089631971 0.0 0.0 0.0 34.64500226677339" Properties=species:S:1:pos:R:3:initial_magmoms:R:1 pbc="T T T"
Si       0.45076059       0.98736948      -2.11587541       0.00000000
Si      -0.56685942      -2.29703661      -0.39557686       0.00000000
Si      -2.02337113       0.79501716       1.22373145       0.00000000
Si       2.06910693       0.21590766       1.43859988       0.00000000
Si      -3.64510646       0.08764020      -0.44262480       0.00000000
Si       2.94101289       2.31142068       0.56519888       0.00000000
Si      -1.18270287       0.07289775      -3.61139705       0.00000000
Si      -2.99784398      -2.19548475      -0.85864222       0.00000000
Si       1.13904567      -3.22385616      -1.83975458       0.00000000
Si       2.51548551       0.16478964      -2.95608647       0.00000000
