10
Lattice="16.28999089631971 0.0 0.0 0.0 16.28999089631971 0.0 0.0 0.0 34.64500226677339" Properties=species:S:1:pos:R:3:initial_magmoms:R:1 pbc="T T T"
Si      -0.96848937      -1.69308486      -1.36719649       0.00000000
Si       1.78481385       0.91706184      -1.28772081       0.00000000
Si       0.01550808      -1.14062580       2.11192587       0.00000000
Si      -1.60756236       1.91948328       0.09184395       0.00000000
Si      -1.51581708       0.31441329       3.22593654       0.00000000
Si       0.35868951       2.24161803      -2.77118599       0.00000000
Si      -2.38414087      -0.47573316      -2.78289601       0.00000000
Si      -2.35267348      -2.90875869       0.07798594       0.00000000
Si      -1.21389822       2.53472400       2.63742156       0.00000000
Si      -0.66684744      -3.46085937       1.68745507       0.00000000
