10
Lattice="10.86 0.0 0.0 0.0 10.86 0.0 0.0 0.0 10.86" Properties=species:S:1:pos:R:3:initial_magmoms:R:1 pbc="T T T"
Si      -1.76350110      -0.70983132      -1.19515386       0.00000000
Si       0.98842290       1.66990962      -1.26997926       0.00000000
Si      -1.44107856       1.70284800       1.39993002       0.00000000
Si       1.87099338      -1.92186162       0.41007360       0.00000000
Si      -0.17008932      -2.19973644      -2.68602552       0.00000000
Si      -2.88508932      -2.19973644       0.02897448       0.00000000
Si       2.54491068       0.51526356      -2.68602552       0.00000000
Si      -2.88508932       0.51526356      -2.68602552       0.00000000
Si       1.14010452      -3.65737650      -1.10748108       0.00000000
Si      -2.88508932       0.51526356       2.74397448       0.00000000
