10
Lattice="10.86 0.0 0.0 0.0 10.86 0.0 0.0 0.0 10.86" Properties=species:S:1:pos:R:3:initial_magmoms:R:1 pbc="T T T"
Si      -0.98842290      -1.66990962       1.26997926       0.00000000
Si       1.55648778      -1.15464606      -1.41604626       0.00000000
Si      -1.15851222       1.56035394      -1.41604626       0.00000000
Si       1.55648778       1.56035394       1.29895374       0.00000000
Si      -2.42950146       0.03293838       2.66990928       0.00000000
Si      -2.75192400      -2.37974094       0.07482540       0.00000000
Si       0.19898778      -2.51214606      -2.77354626       0.00000000
Si      -2.51601222       0.20285394      -2.77354626       0.00000000
Si      -2.51601222       2.91785394      -0.05854626       0.00000000
Si       2.85885156      -0.04395042       2.63118252       0.00000000
