10
Lattice="10.86 0.0 0.0 0.0 10.86 0.0 0.0 0.0 10.86" Properties=species:S:1:pos:R:3:initial_magmoms:R:1 pbc="T T T"
Si       1.39081848       1.30177734       1.27151052       0.00000000
Si      -1.32418152      -1.41322266       1.27151052       0.00000000
Si      -1.32418152       1.30177734      -1.44348948       0.00000000
Si       2.54096850      -2.71442442      -0.06279252       0.00000000
Si       0.03331848       2.65927734       2.62901052       0.00000000
Si      -2.68168152      -0.05572266       2.62901052       0.00000000
Si      -2.68168152       2.65927734      -0.08598948       0.00000000
Si       2.74831848      -0.05572266       2.62901052       0.00000000
Si      -2.59517076      -0.22563822      -2.78753394       0.00000000
Si       0.03331848      -2.77072266       2.62901052       0.00000000
