10
Lattice="10.86 0.0 0.0 0.0 10.86 0.0 0.0 0.0 10.86" Properties=species:S:1:pos:R:3:initial_magmoms:R:1 pbc="T T T"
Si       1.13392518      -1.13392518       1.40326404       0.00000000
Si       1.21802502       1.49697498      -1.34159010       0.00000000
Si      -1.49697498      -1.21802502      -1.34159010       0.00000000
Si      -1.49697498       1.49697498       1.37340990       0.00000000
Si       2.62448190      -2.62448190      -0.17462880       0.00000000
Si       2.57552502       0.13947498      -2.69909010       0.00000000
Si      -0.13947498      -2.57552502      -2.69909010       0.00000000
Si       2.57552502       2.85447498       0.01590990       0.00000000
Si      -2.85447498      -2.57552502       0.01590990       0.00000000
Si      -0.13947498       2.85447498      -2.69909010       0.00000000
