10
Lattice="16.28999089631971 0.0 0.0 0.0 16.28999089631971 0.0 0.0 0.0 34.2284985734139" Properties=species:S:1:pos:R:3:initial_magmoms:R:1 pbc="T T T"
Si      -1.29204235       1.38570885      -1.36601222       0.00000000
Si       1.33588556       1.36133901       1.36610464       0.00000000
Si      -1.38256588      -1.35150311       1.36271602       0.00000000
Si       1.29804715      -1.34548721      -1.57880065       0.00000000
Si      -2.39511970      -0.31265397      -2.51816193       0.00000000
Si      -0.71435008      -2.15334415      -2.69761212       0.00000000
Si       2.68810054      -2.71370757      -0.03248286       0.00000000
Si       2.67971119       2.72310156      -0.00539099       0.00000000
Si       2.69033227       0.00750969       2.72305999       0.00000000
Si      -0.02408780      -2.70810589       2.72326537       0.00000000
