10
Lattice="16.28999089631971 0.0 0.0 0.0 16.28999089631971 0.0 0.0 0.0 34.2284985734139" Properties=species:S:1:pos:R:3:initial_magmoms:R:1 pbc="T T T"
Si      -1.31649264       1.30107611      -1.44178731       0.00000000
Si       1.34381097       1.35723588       1.36388663       0.00000000
Si      -1.37380086      -1.35435909       1.36090875       0.00000000
Si       1.27734777      -1.46601075      -1.38778156       0.00000000
Si      -2.16614646      -0.54624477      -2.65669466       0.00000000
Si      -0.61755390      -2.39572992      -2.55298979       0.00000000
Si       2.68863192       2.70910715      -0.00701000       0.00000000
Si       2.69648370       0.00332049       2.72145810       0.00000000
Si      -0.01741401      -2.71235865       2.72084199       0.00000000
Si       2.69413794      -2.74111050      -0.00649657       0.00000000
