10
Lattice="16.28999089631971 0.0 0.0 0.0 16.28999089631971 0.0 0.0 0.0 34.2284985734139" Properties=species:S:1:pos:R:3:initial_magmoms:R:1 pbc="T T T"
Si       1.35485559      -1.35880090       1.36284266       0.00000000
Si      -1.36050822       1.35807938       1.36291112       0.00000000
Si       1.34690607       1.35829115      -1.38663148       0.00000000
Si      -1.36273995      -1.36313788      -1.39263174       0.00000000
Si       2.71176372       2.71502009       0.00225908       0.00000000
Si      -2.71495493       2.71190870       0.00595576       0.00000000
Si       2.71378368      -2.71591020       0.00321748       0.00000000
Si      -2.71938092      -2.71261962       0.00222485       0.00000000
Si       2.71277370      -0.00014009       2.72020876       0.00000000
Si      -0.00218286       2.71484090       2.72003762       0.00000000
