10
Lattice="16.28999089631971 0.0 0.0 0.0 16.28999089631971 0.0 0.0 0.0 34.2284985734139" Properties=species:S:1:pos:R:3:initial_magmoms:R:1 pbc="T T T"
Si       1.31649264      -1.30107611       1.44178731       0.00000000
Si      -0.84965382      -1.84732088      -1.21490735       0.00000000
Si       1.21942053       1.29804096      -1.58325861       0.00000000
Si      -1.42418583       1.41876615       1.41284710       0.00000000
Si       2.58870906       2.63905005      -0.00428883       0.00000000
Si       2.59384041      -2.76708686       0.05400576       0.00000000
Si      -0.05730822      -2.65543520       2.80269606       0.00000000
Si       2.66030361       0.05615978       2.80567394       0.00000000
Si      -2.72976417      -2.74592615      -0.03831883       0.00000000
Si       0.69893874      -3.69680603      -1.11120247       0.00000000
