10
Lattice="16.28999089631971 0.0 0.0 0.0 16.28999089631971 0.0 0.0 0.0 34.2284985734139" Properties=species:S:1:pos:R:3:initial_magmoms:R:1 pbc="T T T"
Si      -1.87695009      -0.74617064      -1.14740837       0.00000000
Si      -1.31843115       0.21080400       1.91765270       0.00000000
Si       0.83303802       1.97105742      -1.14473855       0.00000000
Si       1.63483182      -1.84491485       0.16888351       0.00000000
Si      -0.48915612      -2.04318044      -2.49632002       0.00000000
Si      -1.48766796      -2.11609448       2.20092792       0.00000000
Si       2.25155493       0.69418369      -2.49074078       0.00000000
Si       3.47656293      -0.78930656      -1.06122096       0.00000000
Si       0.72272214      -3.55964912      -1.08045739       0.00000000
Si       1.11345408      -2.68259552       2.48714678       0.00000000
