10
Lattice="16.28999089631971 0.0 0.0 0.0 16.28999089631971 0.0 0.0 0.0 34.2284985734139" Properties=species:S:1:pos:R:3:initial_magmoms:R:1 pbc="T T T"
Si       1.48090761      -1.21557609      -1.38468046       0.00000000
Si       0.85447566       1.84480992       1.21566003       0.00000000
Si      -1.25706672       1.47924603      -1.38016229       0.00000000
Si      -0.61201530      -1.85551245       1.50232387       0.00000000
Si      -2.57114844      -2.73875625       0.29984182       0.00000000
Si       0.12124647      -2.58092244      -2.74687277       0.00000000
Si       1.48468689       0.94666077       3.33882076       0.00000000
Si      -2.59335171       0.13595634      -2.74896071       0.00000000
Si      -2.67022422       2.69532711       0.16765128       0.00000000
Si       2.76669360      -2.64295476      -0.02772510       0.00000000
