10
Lattice="16.28999089631971 0.0 0.0 0.0 16.28999089631971 0.0 0.0 0.0 34.2284985734139" Properties=species:S:1:pos:R:3:initial_magmoms:R:1 pbc="T T T"
Si       1.67536134       1.04495463      -1.32385638       0.00000000
Si      -1.01216286      -1.69518627      -1.33758201       0.00000000
Si       1.17379224      -0.68600448       1.96389543       0.00000000
Si      -1.70334756       1.83239694       0.20619259       0.00000000
Si      -2.34918090      -0.26049339      -2.66879753       0.00000000
Si       0.38957535       2.47233330      -2.68081173       0.00000000
Si      -0.57744792      -1.07779527       3.46043468       0.00000000
Si      -2.22552351       0.52960419       3.02241234       0.00000000
Si      -3.66248070       0.94915314      -0.99628946       0.00000000
Si       3.40201989       2.11983399      -0.07995782       0.00000000
