10
Lattice="16.28999089631971 0.0 0.0 0.0 16.28999089631971 0.0 0.0 0.0 34.2284985734139" Properties=species:S:1:pos:R:3:initial_magmoms:R:1 pbc="T T T"
Si      -1.28578599       1.42737867      -1.35695536       0.00000000
Si       1.42263828      -1.31878953      -1.35007542       0.00000000
Si      -1.67536134      -1.04495463       1.32385638       0.00000000
Si       1.72665855       1.07487936       1.24389856       0.00000000
Si      -0.50156910      -1.73095911       3.28775181       0.00000000
Si      -3.37870890       0.78744231       1.53004897       0.00000000
Si      -2.64544713       0.06203232      -2.71914767       0.00000000
Si       0.07196922      -2.65453695      -2.72400812       0.00000000
Si       3.44279376      -0.82772748       1.43451718       0.00000000
Si      -2.76669360       2.64295476       0.02772510       0.00000000
