10
Lattice="16.28999089631971 0.0 0.0 0.0 16.28999089631971 0.0 0.0 0.0 34.2284985734139" Properties=species:S:1:pos:R:3:initial_magmoms:R:1 pbc="T T T"
Si      -1.41020901       1.28845755      -1.27695646       0.00000000
Si       1.32359508       1.38184812       1.36789479       0.00000000
Si      -1.39812183      -1.33540533       1.36573839       0.00000000
Si       1.37319813      -1.34172585      -1.66396462       0.00000000
Si      -2.43514323      -0.18981108      -2.87388937       0.00000000
Si       2.65629627      -2.68423362      -0.01304449       0.00000000
Si       2.67224418       2.71033020      -0.00296761       0.00000000
Si       2.67454107       0.02578707       2.72392598       0.00000000
Si      -0.03956841      -2.69063559       2.72454209       0.00000000
Si      -2.74292649      -2.68625358       0.00474750       0.00000000
