10
Lattice="16.28999089631971 0.0 0.0 0.0 16.28999089631971 0.0 0.0 0.0 34.2284985734139" Properties=species:S:1:pos:R:3:initial_magmoms:R:1 pbc="T T T"
Si      -1.34480466      -1.35084825      -1.36099090       0.00000000
Si       1.35855342      -1.35523026       1.35880370       0.00000000
Si      -1.35557235       1.36301688       1.35894061       0.00000000
Si       1.39812183       1.33540533      -1.36573839       0.00000000
Si       0.20906586      -2.58015681      -2.66972512       0.00000000
Si      -0.01208718       2.62386288      -2.64269486       0.00000000
Si      -2.62804941       0.07843635      -2.72015742       0.00000000
Si      -2.71241532      -2.71373481      -0.00075303       0.00000000
Si       0.00151497      -2.71171485       2.71555368       0.00000000
Si      -2.71280628       0.00327429       2.71569059       0.00000000
