10
Lattice="16.28999089631971 0.0 0.0 0.0 16.28999089631971 0.0 0.0 0.0 34.2284985734139" Properties=species:S:1:pos:R:3:initial_magmoms:R:1 pbc="T T T"
Si       1.35536058      -1.35814617      -1.36195272       0.00000000
Si       1.35220032       1.36404315       1.36219232       0.00000000
Si      -1.36107837       1.35842310      -1.36219232       0.00000000
Si      -1.38039831      -1.36739889       1.36513597       0.00000000
Si      -0.15447807       2.52954378       2.76812868       0.00000000
Si       2.58810633      -0.02585223       2.79705178       0.00000000
Si       2.71184517      -2.71438641      -0.00366245       0.00000000
Si      -2.71668330      -2.71068858      -0.00366245       0.00000000
Si       2.71241532       2.71671588      -0.00321748       0.00000000
Si       2.71254564       0.00058644      -2.71955842       0.00000000
