10
Lattice="16.28999089631971 0.0 0.0 0.0 16.28999089631971 0.0 0.0 0.0 34.2284985734139" Properties=species:S:1:pos:R:3:initial_magmoms:R:1 pbc="T T T"
Si      -0.85447566      -1.84480992      -1.21566003       0.00000000
Si       0.63021123      -0.89814915       2.12316072       0.00000000
Si       1.85696226       0.97598277      -1.16390652       0.00000000
Si      -1.68795351       1.76233365       0.31972858       0.00000000
Si      -2.11154238      -0.36556389      -2.59582233       0.00000000
Si       0.62105625       2.36587815      -2.59876598       0.00000000
Si      -3.52469988       0.85051719      -1.04800876       0.00000000
Si       2.85400800      -1.89822483       1.68565181       0.00000000
Si      -0.88562214       3.53137878      -1.19282961       0.00000000
Si       3.25353654       2.12187024       0.30805666       0.00000000
