10
Lattice="16.28999089631971 0.0 0.0 0.0 16.28999089631971 0.0 0.0 0.0 34.2284985734139" Properties=species:S:1:pos:R:3:initial_magmoms:R:1 pbc="T T T"
Si       1.68795351      -1.76233365      -0.31972858       0.00000000
Si       0.80233137       1.76904513      -1.51255820       0.00000000
Si      -1.83674637      -0.91181646      -1.36773734       0.00000000
Si      -0.43489413      -1.00659168       2.91928182       0.00000000
Si       1.19306331       2.64609873       2.05504597       0.00000000
Si      -0.42358887      -2.12789754      -2.91555091       0.00000000
Si       2.30900976       0.60354450      -2.91849456       0.00000000
Si       1.71444105       3.48377940      -0.26321730       0.00000000
Si       3.54491577      -0.78635088      -1.48363510       0.00000000
Si      -1.40805873       3.21259977       1.76882711       0.00000000
