10
Lattice="16.28999089631971 0.0 0.0 0.0 16.28999089631971 0.0 0.0 0.0 34.2284985734139" Properties=species:S:1:pos:R:3:initial_magmoms:R:1 pbc="T T T"
Si      -2.21873058       0.01971090      -0.76983359       0.00000000
Si       0.21230757       2.30330826       0.41221404       0.00000000
Si       0.90759735      -1.38282552       1.71057017       0.00000000
Si       0.53432829      -1.63418022      -1.88568327       0.00000000
Si      -3.31283214       0.72993861       1.26700281       0.00000000
Si       3.25065321      -0.85740786       1.66265025       0.00000000
Si       0.82587042      -3.60126288       0.75402002       0.00000000
Si      -3.03507135      -2.21224716      -0.85379615       0.00000000
Si       2.36964114       2.81077434       1.17304553       0.00000000
Si      -1.11695643      -3.55708440      -1.15709504       0.00000000
