10
Lattice="16.28999089631971 0.0 0.0 0.0 16.28999089631971 0.0 0.0 0.0 34.2284985734139" Properties=species:S:1:pos:R:3:initial_magmoms:R:1 pbc="T T T"
Si       0.31640067       1.76166576       1.53905107       0.00000000
Si       0.20642688      -1.76974560       1.61839277       0.00000000
Si      -2.25904833       0.44424459      -0.73913061       0.00000000
Si       1.12145247      -0.37188441      -2.11111229       0.00000000
Si      -1.78199568       1.31479848       2.68601447       0.00000000
Si       0.28621530       3.84343002       0.38996550       0.00000000
Si       1.55313747      -3.49510095       0.66389633       0.00000000
Si      -3.56353524      -1.42478856      -0.82264819       0.00000000
Si       0.21385512       1.01094111      -3.82168246       0.00000000
Si      -1.91835927      -2.63889855       2.33931381       0.00000000
