10
Lattice="16.28999089631971 0.0 0.0 0.0 16.28999089631971 0.0 0.0 0.0 34.2284985734139" Properties=species:S:1:pos:R:3:initial_magmoms:R:1 pbc="T T T"
Si      -1.44458091       1.12809879      -1.42585736       0.00000000
Si       1.02493422       1.47826863       1.59693290       0.00000000
Si      -1.59102801      -1.06715790       1.51947034       0.00000000
Si       0.80901027      -1.84648779      -1.57047285       0.00000000
Si       1.68189363       1.94230557      -1.77224996       0.00000000
Si      -2.30931927      -0.62511246      -2.75128825       0.00000000
Si       2.52934830      -2.68716582      -0.15639010       0.00000000
Si       1.79569557       3.24552186       0.32442854       0.00000000
Si      -1.09410156      -3.43386684      -1.02788239       0.00000000
Si       2.43514323       0.18981108       2.87388937       0.00000000
