10
Lattice="16.28999089631971 0.0 0.0 0.0 16.28999089631971 0.0 0.0 0.0 34.2284985734139" Properties=species:S:1:pos:R:3:initial_magmoms:R:1 pbc="T T T"
Si       0.84965382       1.84732088       1.21490735       0.00000000
Si      -1.88011035      -0.89860527       1.17658852       0.00000000
Si       1.54859256      -1.84948515       0.10370488       0.00000000
Si       2.16614646       0.54624477       2.65669466       0.00000000
Si      -0.57345687      -2.17965087       2.66281130       0.00000000
Si       2.06907435       3.14536184      -0.36835126       0.00000000
Si       3.44349423      -0.91976598       1.26891310       0.00000000
Si      -3.01294953      -2.38900995      -0.37601845       0.00000000
Si       1.20541113       0.41718690      -3.68608725       0.00000000
Si       0.77783121      -3.61673838       1.37620924       0.00000000
