10
Lattice="16.28999089631971 0.0 0.0 0.0 16.28999089631971 0.0 0.0 0.0 34.2284985734139" Properties=species:S:1:pos:R:3:initial_magmoms:R:1 pbc="T T T"
Si      -2.01239722      -0.80785694      -1.11881147       0.00000000
Si      -1.29804715       1.34548721       1.57880065       0.00000000
Si       1.39005339      -1.36822036       1.54631778       0.00000000
Si       1.40101656       1.44901016      -1.50957488       0.00000000
Si      -2.59008949       2.73119606       0.21278843       0.00000000
Si       2.71477248       2.78154845       0.08731353       0.00000000
Si      -2.81469601      -2.75381703       0.15479163       0.00000000
Si      -3.69316684       1.03283324      -0.93936128       0.00000000
Si       2.79412107      -2.81148363       0.10115212       0.00000000
Si      -2.68061302      -0.00601590       2.94151666       0.00000000
