10
Lattice="16.28999089631971 0.0 0.0 0.0 16.28999089631971 0.0 0.0 0.0 34.2284985734139" Properties=species:S:1:pos:R:3:initial_magmoms:R:1 pbc="T T T"
Si       1.27948176      -1.92096567       0.42884910       0.00000000
Si      -2.27955744      -0.10542888      -0.73235336       0.00000000
Si       1.24131429       1.12853603      -1.71792930       0.00000000
Si       1.60453242       1.61778012       1.21802180       0.00000000
Si       2.92071555      -0.40216752       1.35075999       0.00000000
Si      -0.16430094       2.86620011      -2.47112784       0.00000000
Si      -3.43435554       1.50978556       0.67457563       0.00000000
Si      -1.20541113      -0.41718690       3.68608725       0.00000000
Si       0.22937949      -3.56988834       1.69311363       0.00000000
Si      -3.30862932      -2.20146318      -0.25137423       0.00000000
