10
Lattice="16.28999089631971 0.0 0.0 0.0 16.28999089631971 0.0 0.0 0.0 34.2284985734139" Properties=species:S:1:pos:R:3:initial_magmoms:R:1 pbc="T T T"
Si      -1.22404852       1.61129277      -1.32481478       0.00000000
Si       1.31375592       1.33253829       1.59688840       0.00000000
Si      -1.40101656      -1.44901016       1.50957488       0.00000000
Si       1.90192266       0.76781286      -2.33335805       0.00000000
Si       1.04427045      -1.43491605      -2.57737315       0.00000000
Si      -2.74956371       2.65155588       0.24127682       0.00000000
Si       0.69494769       2.93573493      -2.36385566       0.00000000
Si       2.86469424       2.75007780       0.53139743       0.00000000
Si      -0.01935252       2.61957861       3.08298454       0.00000000
Si      -1.95987271       0.80099559      -3.48733830       0.00000000
