10
Lattice="16.28999089631971 0.0 0.0 0.0 16.28999089631971 0.0 0.0 0.0 34.2284985734139" Properties=species:S:1:pos:R:3:initial_magmoms:R:1 pbc="T T T"
Si       1.51676190      -0.55963481       1.73415362       0.00000000
Si       1.17038763      -0.61385933      -1.98997756       0.00000000
Si      -0.87141726       2.27683701      -0.21783029       0.00000000
Si      -2.07904383      -1.33194419       0.95497564       0.00000000
Si       1.02993525       1.55993040       2.71408185       0.00000000
Si      -2.62265742       1.88504622       1.27870896       0.00000000
Si       0.26500572      -1.94210099       3.04907636       0.00000000
Si      -0.41384745      -1.49270876      -3.43579015       0.00000000
Si       1.82539224       3.14445870       1.08350373       0.00000000
Si      -1.25120232       1.94352732       3.20207783       0.00000000
