10
Lattice="16.28999089631971 0.0 0.0 0.0 16.28999089631971 0.0 0.0 0.0 34.2284985734139" Properties=species:S:1:pos:R:3:initial_magmoms:R:1 pbc="T T T"
Si      -1.25175618      -1.38246618       1.31492274       0.00000000
Si      -1.51676190       0.55963481      -1.73415362       0.00000000
Si      -0.48682665       2.11956520       0.97992823       0.00000000
Si       2.12051817      -1.11342054      -0.07848599       0.00000000
Si       3.49972731       0.63982233      -0.80180303       0.00000000
Si      -0.43204338      -1.28811450       3.46940255       0.00000000
Si      -0.34637427      -0.05422452      -3.72413118       0.00000000
Si      -3.59580573      -0.77230939      -0.77917798       0.00000000
Si       0.30863034       3.70409350      -0.65064989       0.00000000
Si       1.94279427      -2.97385257      -1.50492524       0.00000000
