10
Lattice="16.28999089631971 0.0 0.0 0.0 16.28999089631971 0.0 0.0 0.0 34.2284985734139" Properties=species:S:1:pos:R:3:initial_magmoms:R:1 pbc="T T T"
Si       1.96988454      -1.21854087      -0.14745645       0.00000000
Si       0.64384596       2.10748617      -0.75001528       0.00000000
Si      -0.57586779       0.75696372       2.12511175       0.00000000
Si      -1.65291372      -0.15855057      -1.64177085       0.00000000
Si       2.39873508       1.31773068      -2.06579373       0.00000000
Si      -2.79893151       1.30680009       1.51707636       0.00000000
Si       1.72304217      -2.75639832       1.62551231       0.00000000
Si      -3.43262880       1.05438654      -0.73806953       0.00000000
Si      -0.71781885       0.60779619      -3.65331238       0.00000000
Si       2.09735379      -2.11299871      -2.34612529       0.00000000
