10
Lattice="16.28999089631971 0.0 0.0 0.0 16.28999089631971 0.0 0.0 0.0 34.2284985734139" Properties=species:S:1:pos:R:3:initial_magmoms:R:1 pbc="T T T"
Si      -1.35066906      -1.33574742      -1.37393270       0.00000000
Si      -1.42263828       1.31878953       1.35007542       0.00000000
Si       1.36423863       1.37731950      -1.36879842       0.00000000
Si       1.23207786      -1.50198687       1.48171830       0.00000000
Si       2.02015548       0.49106205       2.78459260       0.00000000
Si       0.30402027       2.39366889       2.59397399       0.00000000
Si      -2.69164557      -2.69822510      -0.00965244       0.00000000
Si       0.00153126      -2.69315077      -2.72986120       0.00000000
Si       2.73346200      -2.70120454       0.02283042       0.00000000
Si      -2.71099809       0.01817964      -2.73013503       0.00000000
