10
Lattice="16.28999089631971 0.0 0.0 0.0 16.28999089631971 0.0 0.0 0.0 34.2284985734139" Properties=species:S:1:pos:R:3:initial_magmoms:R:1 pbc="T T T"
Si       1.85766273       0.93915108      -1.30639984       0.00000000
Si      -0.78807762      -1.99304892      -1.30287430       0.00000000
Si      -1.71613521       1.90260684      -0.19061862       0.00000000
Si       2.34468486       0.88498683       1.65197095       0.00000000
Si      -1.24755336      -0.03560994       3.15456865       0.00000000
Si      -2.02015548      -0.49106205      -2.78459260       0.00000000
Si       0.69919938       2.25539937      -2.82607756       0.00000000
Si       1.17786474       2.76649812       2.28509584       0.00000000
Si      -3.44279376       0.82772748      -1.43451718       0.00000000
Si       1.06201026       0.42573915       3.72146136       0.00000000
