10
Lattice="16.28999089631971 0.0 0.0 0.0 16.28999089631971 0.0 0.0 0.0 34.2284985734139" Properties=species:S:1:pos:R:3:initial_magmoms:R:1 pbc="T T T"
Si       1.06730451       1.40066307       1.51933544       0.00000000
Si      -1.64571354       1.45085256      -0.77722695       0.00000000
Si      -0.64384596      -2.10748617       0.75001528       0.00000000
Si       1.75488912      -0.78975549      -1.31577845       0.00000000
Si      -2.29675968      -2.26603674      -0.89175557       0.00000000
Si      -1.21971375      -1.35052245       2.87512703       0.00000000
Si       0.22362912       0.44413056       3.47720666       0.00000000
Si      -1.36166481      -1.49968998      -2.90329710       0.00000000
Si       3.21277896       0.54897300       1.45549926       0.00000000
Si      -1.93306914       0.79053741      -2.94002430       0.00000000
