10
Lattice="16.28999089631971 0.0 0.0 0.0 16.28999089631971 0.0 0.0 0.0 34.2284985734139" Properties=species:S:1:pos:R:3:initial_magmoms:R:1 pbc="T T T"
Si      -1.34864910      -1.32848208       1.37086240       0.00000000
Si      -1.41679017       1.27509975      -1.38128499       0.00000000
Si       1.36256076       1.38986280       1.37007515       0.00000000
Si       1.35881406      -1.38031686      -1.46222516       0.00000000
Si       1.99757754       0.53354637      -2.74728835       0.00000000
Si       0.30092517       2.28874500      -2.72343107       0.00000000
Si      -2.67224418      -2.71033020       0.00296761       0.00000000
Si       2.73180042      -2.67203241       0.00244049       0.00000000
Si       0.00229689      -2.68454313       2.72689359       0.00000000
Si      -2.69413794       2.74111050       0.00649657       0.00000000
