10
Lattice="16.28999089631971 0.0 0.0 0.0 16.28999089631971 0.0 0.0 0.0 34.2284985734139" Properties=species:S:1:pos:R:3:initial_magmoms:R:1 pbc="T T T"
Si       1.37920914       1.75324287      -0.72331704       0.00000000
Si      -0.17772390      -1.86043203      -1.42643925       0.00000000
Si      -2.12051817       1.11342054       0.07848599       0.00000000
Si       0.82803699      -1.22034906       1.91012243       0.00000000
Si      -1.53935613      -3.25554021       0.10778560       0.00000000
Si      -3.37227435      -0.26904564       1.39340873       0.00000000
Si       0.52567830      -3.47760549       1.24800598       0.00000000
Si       1.41519375       3.35411819       0.99269547       0.00000000
Si       3.55496670       0.95883333      -1.26330613       0.00000000
Si       3.14768412      -0.79807968       2.20551454       0.00000000
