10
Lattice="16.28999089631971 0.0 0.0 0.0 16.28999089631971 0.0 0.0 0.0 34.2284985734139" Properties=species:S:1:pos:R:3:initial_magmoms:R:1 pbc="T T T"
Si       0.36201267       2.18367680      -0.86293516       0.00000000
Si      -0.45732546      -1.50105834      -1.80521202       0.00000000
Si      -1.65561786       0.60548301       1.72655489       0.00000000
Si       0.44100288      -1.78636140       1.73398248       0.00000000
Si       2.70883152      -1.28532987       1.30218973       0.00000000
Si      -3.29685165      -0.91331514       0.80464399       0.00000000
Si      -2.60656290      -2.18575962      -1.06070754       0.00000000
Si       1.93293882       2.94300746       0.76315903       0.00000000
Si       0.93322152       1.54946312      -3.12882880       0.00000000
Si      -0.69098922      -0.08565282      -3.67538977       0.00000000
