10
Lattice="16.28999089631971 0.0 0.0 0.0 16.28999089631971 0.0 0.0 0.0 34.2284985734139" Properties=species:S:1:pos:R:3:initial_magmoms:R:1 pbc="T T T"
Si      -1.31618313       2.01994764      -0.13273819       0.00000000
Si      -1.64123379      -1.51879815      -0.92191090       0.00000000
Si       1.65561786      -0.60548301      -1.72655489       0.00000000
Si       1.03508289       0.07885989       2.26209428       0.00000000
Si       2.09662074      -2.39184441       0.00742759       0.00000000
Si      -2.92071555       0.40216752      -1.35075999       0.00000000
Si       2.01763053       1.57819379      -2.58949005       0.00000000
Si      -0.68263245      -0.93478536       3.60424036       0.00000000
Si      -1.67940126       1.53070355      -3.06868930       0.00000000
Si       0.11833056       2.98980863      -2.49898985       0.00000000
