10
Lattice="16.28999089631971 0.0 0.0 0.0 16.28999089631971 0.0 0.0 0.0 34.2284985734139" Properties=species:S:1:pos:R:3:initial_magmoms:R:1 pbc="T T T"
Si      -1.35670532      -1.35739683      -1.35678421       0.00000000
Si       1.35706126      -1.35769005       1.35818758       0.00000000
Si      -1.35801024       1.35773892       1.35787953       0.00000000
Si       1.35844591       1.35874890      -1.35736610       0.00000000
Si       2.71276393      -0.00084708       2.71493757       0.00000000
Si      -0.00074119       2.71305063       2.71510871       0.00000000
Si       2.71457212      -2.71479366       0.00023960       0.00000000
Si      -2.71507126       0.00096111       2.71473220       0.00000000
Si      -2.71516900      -2.71485882       0.00003423       0.00000000
Si      -2.71541335       2.71474479       0.00041074       0.00000000
