10
Lattice="16.28999089631971 0.0 0.0 0.0 16.28999089631971 0.0 0.0 0.0 34.2284985734139" Properties=species:S:1:pos:R:3:initial_magmoms:R:1 pbc="T T T"
Si       1.35736425       1.35674564       1.35654461       0.00000000
Si       1.35690813      -1.35680576      -1.35743456       0.00000000
Si      -1.35759231       1.35712520      -1.35770838       0.00000000
Si      -1.35889551      -1.35905378       1.35661307       0.00000000
Si       2.71171609       0.00092716       2.71548522       0.00000000
Si      -0.00035838       2.71394210      -2.71510871       0.00000000
Si       2.71435993       0.00037906      -2.71469797       0.00000000
Si       2.71474040      -2.71456097      -0.00017114       0.00000000
Si      -2.71533123      -2.71478903      -0.00006846       0.00000000
Si       0.00016290      -2.71439807      -2.71582751       0.00000000
