10
Lattice="16.28999089631971 0.0 0.0 0.0 16.28999089631971 0.0 0.0 0.0 34.2284985734139" Properties=species:S:1:pos:R:3:initial_magmoms:R:1 pbc="T T T"
Si       1.14303087       1.39680234       1.65306626       0.00000000
Si       1.39573276      -1.28490959      -1.55503579       0.00000000
Si      -1.34447886       1.41569874      -1.52885097       0.00000000
Si      -0.57057354      -2.07101938       1.31126028       0.00000000
Si       1.32571019      -0.53719533       3.28015308       0.00000000
Si       2.77101764       2.61762381       0.11665079       0.00000000
Si      -2.61410517      -2.79128240      -0.00065034       0.00000000
Si       2.71134737      -2.74394366      -0.22731159       0.00000000
Si       0.03012145      -2.65573931      -2.93222020       0.00000000
Si      -2.68003080       0.05722677      -2.92814700       0.00000000
