10
Lattice="16.28999089631971 0.0 0.0 0.0 16.28999089631971 0.0 0.0 0.0 34.2284985734139" Properties=species:S:1:pos:R:3:initial_magmoms:R:1 pbc="T T T"
Si       2.18009463      -0.07693767      -0.88104205       0.00000000
Si       0.08042373       2.30283585       0.59492587       0.00000000
Si      -1.80631665      -1.57216419      -0.25801457       0.00000000
Si       0.85268376      -1.24675515       1.94626775       0.00000000
Si      -1.37746611       0.96410736      -2.17635184       0.00000000
Si       2.20695847      -2.24319001      -1.92463532       0.00000000
Si      -3.13235523       1.75386285      -0.86057339       0.00000000
Si       3.54865337       0.34727022       1.08466750       0.00000000
Si       2.41472927       1.82379582      -2.25319486       0.00000000
Si      -3.77620119      -0.35362332      -0.11055811       0.00000000
