10
Lattice="16.28999089631971 0.0 0.0 0.0 16.28999089631971 0.0 0.0 0.0 34.2284985734139" Properties=species:S:1:pos:R:3:initial_magmoms:R:1 pbc="T T T"
Si       1.35706102       1.35677781      -1.35685267       0.00000000
Si      -1.35773892      -1.35816246      -1.35681844       0.00000000
Si      -1.35935163       1.36039419       1.35606541       0.00000000
Si       1.36449927      -1.36024758       1.36222655       0.00000000
Si      -2.71500543       0.00925272       2.68851315       0.00000000
Si       2.71433007       2.71208952       0.00037651       0.00000000
Si      -0.00034209       2.71378368      -2.71432145       0.00000000
Si      -2.71774215       2.71104696      -0.00051343       0.00000000
Si      -2.71494027      -0.00097740      -2.71418454       0.00000000
Si       2.71507126      -0.00096111      -2.71473220       0.00000000
