10
Lattice="16.28999089631971 0.0 0.0 0.0 16.28999089631971 0.0 0.0 0.0 34.2284985734139" Properties=species:S:1:pos:R:3:initial_magmoms:R:1 pbc="T T T"
Si       0.91751796      -1.92474495       0.99796666       0.00000000
Si       0.10598274       1.92318111       1.35401170       0.00000000
Si      -2.30956362      -0.46134909      -0.56689271       0.00000000
Si       1.28267460       0.45924768      -2.06949041       0.00000000
Si       0.11585448       2.34075897      -1.43636552       0.00000000
Si      -2.13578190       2.61407259       1.42993056       0.00000000
Si       0.88153335      -3.52562026      -0.71804584       0.00000000
Si      -0.10989234      -2.01240144       3.13978193       0.00000000
Si      -3.37791069       1.63953963      -0.30463381       0.00000000
Si       1.28441763       1.31878953       3.30602984       0.00000000
