10
Lattice="16.28999089631971 0.0 0.0 0.0 16.28999089631971 0.0 0.0 0.0 34.2284985734139" Properties=species:S:1:pos:R:3:initial_magmoms:R:1 pbc="T T T"
Si      -0.47829069      -1.80364509       1.35548353       0.00000000
Si       0.40133673       1.86520500       1.34364046       0.00000000
Si      -1.17843489       0.60439158      -1.95201814       0.00000000
Si       1.98705420      -1.12914135      -0.64400956       0.00000000
Si       2.16932301       0.72612675       2.47876079       0.00000000
Si       0.42435450       3.51754857      -0.38240100       0.00000000
Si      -1.39430997      -3.33119097      -0.16624791       0.00000000
Si      -2.23317981      -1.01388960       2.67126198       0.00000000
Si       3.31390469      -0.94395663       1.27864051       0.00000000
Si      -1.28441763      -1.31878953      -3.30602984       0.00000000
