10
Lattice="16.28999089631971 0.0 0.0 0.0 16.28999089631971 0.0 0.0 0.0 34.2284985734139" Properties=species:S:1:pos:R:3:initial_magmoms:R:1 pbc="T T T"
Si      -2.14547445       0.85169007       0.06383619       0.00000000
Si       0.80648532       0.52439139       2.11063309       0.00000000
Si       1.18972386       1.19104335      -1.64800044       0.00000000
Si      -0.08042373      -2.30283585      -0.59492587       0.00000000
Si      -1.45788984      -1.33872849      -2.77127771       0.00000000
Si       2.09967090      -2.37977352      -1.47596791       0.00000000
Si      -0.99896796      -0.42663510       3.34758326       0.00000000
Si      -3.21277896      -0.54897300      -1.45549926       0.00000000
Si      -2.98914984      -0.10484244       2.02170740       0.00000000
Si      -0.57826242       2.33012160      -2.78312077       0.00000000
