10
Lattice="16.28999089631971 0.0 0.0 0.0 16.28999089631971 0.0 0.0 0.0 34.2284985734139" Properties=species:S:1:pos:R:3:initial_magmoms:R:1 pbc="T T T"
Si      -0.80648532      -0.52439139      -2.11063309       0.00000000
Si       0.46799541       2.33652357       0.00557925       0.00000000
Si       2.03900205      -1.18288206       0.36364377       0.00000000
Si      -1.80545328      -0.95102649       1.23695017       0.00000000
Si      -0.77271615      -3.08496762       1.29897225       0.00000000
Si      -2.95195977       0.32729868      -2.04679690       0.00000000
Si       1.40186920      -2.73336426       2.07862942       0.00000000
Si       0.37636416       1.76731839       3.28422627       0.00000000
Si      -0.79664616       3.16060209       1.85456955       0.00000000
Si       2.88698615       2.42813853      -0.00427856       0.00000000
