10
Lattice="16.28999089631971 0.0 0.0 0.0 16.28999089631971 0.0 0.0 0.0 34.2284985734139" Properties=species:S:1:pos:R:3:initial_magmoms:R:1 pbc="T T T"
Si       1.35488070      -1.35943308      -1.36092586       0.00000000
Si      -1.36226754       1.35633798      -1.36102855       0.00000000
Si      -1.36409202      -1.36070370       1.36506751       0.00000000
Si       1.36480619       1.34268696       1.38478314       0.00000000
Si       2.71349765      -2.71103067      -0.00246445       0.00000000
Si       2.71379087       2.71583622      -0.00297788       0.00000000
Si      -2.71880100      -2.71112841      -0.00523696       0.00000000
Si       2.71307411       0.00009774      -2.71825773       0.00000000
Si      -2.71632492       2.71621089       0.00047920       0.00000000
Si      -0.00238835      -2.71474479      -2.71815505       0.00000000
