10
Lattice="16.28999089631971 0.0 0.0 0.0 16.28999089631971 0.0 0.0 0.0 34.2284985734139" Properties=species:S:1:pos:R:3:initial_magmoms:R:1 pbc="T T T"
Si       0.47223081       1.79641233      -1.44653139       0.00000000
Si       2.21571693      -0.76440825       0.56874105       0.00000000
Si      -1.98017982      -0.82266129      -1.13535993       0.00000000
Si      -1.35298224       0.89119332       2.03601492       0.00000000
Si      -3.17887947       0.50863896       0.42409133       0.00000000
Si       2.26406565       2.73642678      -0.19602672       0.00000000
Si       0.96107742       0.57801807      -3.55432351       0.00000000
Si      -2.19398607      -3.00954492      -0.34002609       0.00000000
Si      -1.40190111      -2.98444203       1.87295026       0.00000000
Si      -1.31825196       3.37721022      -1.15281648       0.00000000
