10
Lattice="16.28999089631971 0.0 0.0 0.0 16.28999089631971 0.0 0.0 0.0 34.2284985734139" Properties=species:S:1:pos:R:3:initial_magmoms:R:1 pbc="T T T"
Si      -1.34232858      -1.34309421      -1.36585477       0.00000000
Si      -1.35498591       1.35928647       1.35787953       0.00000000
Si       1.35891246      -1.35536058       1.35880370       0.00000000
Si       1.36685991       1.35576783      -1.38632685       0.00000000
Si       0.04983111      -2.62187550      -2.77559735       0.00000000
Si      -2.71282257      -2.71438641      -0.00164297       0.00000000
Si      -2.71274112       0.00112401       2.71586174       0.00000000
Si       0.00197109      -2.71401174       2.71610134       0.00000000
Si      -2.71156824       2.71880100       0.00177988       0.00000000
Si       2.71732091      -2.71518462      -0.00171143       0.00000000
