10
Lattice="16.28999089631971 0.0 0.0 0.0 16.28999089631971 0.0 0.0 0.0 34.2284985734139" Properties=species:S:1:pos:R:3:initial_magmoms:R:1 pbc="T T T"
Si       1.35697329      -1.35777150       1.35729764       0.00000000
Si      -1.35909099      -1.35672894      -1.35726341       0.00000000
Si      -1.35773892       1.35777150       1.35777684       0.00000000
Si       1.35775521       1.35816246      -1.35798221       0.00000000
Si      -2.71003698      -0.00066789      -2.71329460       0.00000000
Si       2.71223613      -0.00105885       2.71483488       0.00000000
Si      -0.00130320       2.71350675       2.71445837       0.00000000
Si       2.71274112      -0.00112401      -2.71586174       0.00000000
Si       2.71471221      -2.71513575       0.00023960       0.00000000
Si      -2.71474479      -2.71523349       0.00010269       0.00000000
