10
Lattice="16.28999089631971 0.0 0.0 0.0 16.28999089631971 0.0 0.0 0.0 34.2284985734139" Properties=species:S:1:pos:R:3:initial_magmoms:R:1 pbc="T T T"
Si      -1.35526284      -1.35671265      -1.35753724       0.00000000
Si      -1.35405738       1.35987291       1.36150775       0.00000000
Si       1.36009658       1.35905841      -1.35716073       0.00000000
Si       1.36226754      -1.35633798       1.36102855       0.00000000
Si      -2.71223613       0.00105885      -2.71483488       0.00000000
Si      -2.71353933       2.71456560      -0.00037651       0.00000000
Si       0.00247608      -2.71407690      -2.71459528       0.00000000
Si       0.00226431       2.71681362      -2.71442414       0.00000000
Si      -2.71492398      -2.71681362      -0.00078726       0.00000000
Si       2.71775911       0.00130320      -2.71456105       0.00000000
