10
Lattice="16.28999089631971 0.0 0.0 0.0 16.28999089631971 0.0 0.0 0.0 34.2284985734139" Properties=species:S:1:pos:R:3:initial_magmoms:R:1 pbc="T T T"
Si      -0.10448406      -2.17697931      -0.84948335       0.00000000
Si       2.30891921       0.05321943       0.40440994       0.00000000
Si      -0.96946677       0.26309979       2.15222074       0.00000000
Si      -0.56218419       2.02001280      -1.31659993       0.00000000
Si       3.15748160      -0.08526186      -1.88260270       0.00000000
Si      -2.33976528      -2.44734444      -1.60322954       0.00000000
Si      -3.28911390      -0.15916959       1.85682863       0.00000000
Si       0.06999813      -1.37099898       3.56127190       0.00000000
Si       2.95835264       2.08614694       1.41966200       0.00000000
Si       0.75405663      -3.81852261       0.62922284       0.00000000
