10
Lattice="16.28999089631971 0.0 0.0 0.0 16.28999089631971 0.0 0.0 0.0 34.2284985734139" Properties=species:S:1:pos:R:3:initial_magmoms:R:1 pbc="T T T"
Si       0.83038275      -0.14261895      -2.15061200       0.00000000
Si       1.51096333      -1.35918873       1.24393279       0.00000000
Si      -2.04779961      -1.21981149      -0.23864123       0.00000000
Si       0.83080629       2.16749853       0.71075517       0.00000000
Si       3.14239706       0.10427229      -1.57796889       0.00000000
Si       2.30138345       0.27793998       2.72917663       0.00000000
Si      -1.83987405      -2.84027553       1.50448027       0.00000000
Si      -0.43227144       2.63605433       2.64586442       0.00000000
Si       3.28522778      -1.87483239      -0.32267224       0.00000000
Si       0.70954353      -2.44156149      -2.88717547       0.00000000
