10
Lattice="16.28999089631971 0.0 0.0 0.0 16.28999089631971 0.0 0.0 0.0 34.2284985734139" Properties=species:S:1:pos:R:3:initial_magmoms:R:1 pbc="T T T"
Si      -1.26307773       0.46855580       1.93510925       0.00000000
Si       0.70065475       1.70877117      -1.56797417       0.00000000
Si      -0.83080629      -2.16749853      -0.71075517       0.00000000
Si       2.34519704       0.08125452       1.08713195       0.00000000
Si       1.47057716      -1.88955855       2.01842146       0.00000000
Si      -0.17829405      -1.02827367       3.38194869       0.00000000
Si       1.70736209       2.12370191       2.28971669       0.00000000
Si       3.41821934      -0.29633139      -1.05304035       0.00000000
Si      -1.01460636       1.46438859      -3.14067187       0.00000000
Si      -0.65361996       2.70520604       2.30292890       0.00000000
