10
Lattice="16.28999089631971 0.0 0.0 0.0 16.28999089631971 0.0 0.0 0.0 34.2284985734139" Properties=species:S:1:pos:R:3:initial_magmoms:R:1 pbc="T T T"
Si      -0.63876348      -1.91386323       1.28506319       0.00000000
Si      -0.63511452      -0.71550567      -2.23080941       0.00000000
Si      -1.69665237       1.75519863       0.02385728       0.00000000
Si       1.94320152       0.82038069       1.32731829       0.00000000
Si       1.63271412      -0.21447414      -2.66260216       0.00000000
Si      -1.99757754      -0.53354637       2.74728835       0.00000000
Si       0.70911999       2.21107428       2.75554769       0.00000000
Si      -3.41436771       0.74155338       1.36600336       0.00000000
Si      -0.69128244       3.51977120       1.31875432       0.00000000
Si       2.28333672       2.15819694      -2.23519066       0.00000000
