10
Lattice="16.28999089631971 0.0 0.0 0.0 16.28999089631971 0.0 0.0 0.0 34.2284985734139" Properties=species:S:1:pos:R:3:initial_magmoms:R:1 pbc="T T T"
Si      -2.03900205       1.18288206      -0.36364377       0.00000000
Si      -0.63713285      -1.55048220       1.71498565       0.00000000
Si       0.62274226      -1.29707496      -1.98453523       0.00000000
Si       1.81179823       1.58886144       0.55368050       0.00000000
Si      -2.81171820      -1.90208556       0.93532847       0.00000000
Si       2.01768754       0.58425714       2.83846829       0.00000000
Si       0.28775470      -3.47260446      -1.13614719       0.00000000
Si       3.62797034       0.49695903      -0.52126610       0.00000000
Si       2.71900462      -0.30911904      -2.50884766       0.00000000
Si       0.84798409       3.61102059      -0.36792234       0.00000000
