10
Lattice="16.28999089631971 0.0 0.0 0.0 16.28999089631971 0.0 0.0 0.0 34.2284985734139" Properties=species:S:1:pos:R:3:initial_magmoms:R:1 pbc="T T T"
Si       1.35834166       1.35672894       1.35733187       0.00000000
Si      -1.35694137      -1.35865116       1.35729764       0.00000000
Si      -1.35891246       1.35536058      -1.35880370       0.00000000
Si       1.35840845      -1.35982404      -1.36051512       0.00000000
Si      -2.70124104       0.01226637      -2.72465847       0.00000000
Si       2.71616855       2.71233387      -0.00013691       0.00000000
Si      -2.71389837       2.71464705      -0.00092417       0.00000000
Si      -2.71468029      -0.00128691       2.71435568       0.00000000
Si       0.00067913       2.71448415       2.71473220       0.00000000
Si      -2.71373547      -2.71635750       0.00006846       0.00000000
