10
Lattice="16.28999089631971 0.0 0.0 0.0 16.28999089631971 0.0 0.0 0.0 34.2284985734139" Properties=species:S:1:pos:R:3:initial_magmoms:R:1 pbc="T T T"
Si      -1.32230817       0.76489695      -1.77399562       0.00000000
Si       0.86473836       1.75321125       1.32543089       0.00000000
Si      -1.89306416      -0.76256748       1.30088904       0.00000000
Si       1.65180600      -1.29210651      -1.31564153       0.00000000
Si       2.14014762       2.31765975      -0.63493900       0.00000000
Si      -1.19154834      -1.24548453      -3.03237284       0.00000000
Si       1.21521771      -2.80875438       1.72340587       0.00000000
Si       3.11832954      -1.22137533       1.18081540       0.00000000
Si      -0.57831129      -1.91599722       2.93400964       0.00000000
Si       2.30931927       0.62511246       2.75128825       0.00000000
