10
Lattice="16.28999089631971 0.0 0.0 0.0 16.28999089631971 0.0 0.0 0.0 34.2284985734139" Properties=species:S:1:pos:R:3:initial_magmoms:R:1 pbc="T T T"
Si       1.34789859       1.36321236       1.38444428       0.00000000
Si      -1.36685991      -1.35576783       1.38632685       0.00000000
Si      -1.50020985       1.32709743      -1.40193847       0.00000000
Si       1.51660434      -1.30579011      -1.42852719       0.00000000
Si      -2.70918849      -2.69886204       0.02047208       0.00000000
Si       2.70453956       2.71269409      -0.01041232       0.00000000
Si       2.71788107      -2.70265761       0.02917297       0.00000000
Si      -2.73429138       2.71779102       0.02629092       0.00000000
Si       2.70822110       0.00120546       2.74499363       0.00000000
Si      -0.00794745      -2.71112841       2.74513054       0.00000000
