10
Lattice="16.28999089631971 0.0 0.0 0.0 16.28999089631971 0.0 0.0 0.0 34.2284985734139" Properties=species:S:1:pos:R:3:initial_magmoms:R:1 pbc="T T T"
Si      -1.35554737       1.35508341       1.36089164       0.00000000
Si       1.36032251      -1.36200690       1.36054935       0.00000000
Si      -1.34789859      -1.36321236      -1.38444428       0.00000000
Si       1.35664097       1.34948173      -1.39485659       0.00000000
Si      -2.71402544       2.71168620       0.00034229       0.00000000
Si       0.00216494       2.71270269       2.71812082       0.00000000
Si      -2.71299917      -0.00210141       2.71815505       0.00000000
Si       2.71938092       2.71261962      -0.00222485       0.00000000
Si      -2.71475849      -2.71898019       0.00188257       0.00000000
Si       2.71780079      -2.71748151       0.00790679       0.00000000
