10
Lattice="16.28999089631971 0.0 0.0 0.0 16.28999089631971 0.0 0.0 0.0 34.2284985734139" Properties=species:S:1:pos:R:3:initial_magmoms:R:1 pbc="T T T"
Si       1.38721730      -1.17542124       1.37964886       0.00000000
Si      -1.64887121       0.86128488       1.36352723       0.00000000
Si      -0.79042012      -1.63712871      -1.48524384       0.00000000
Si       0.87461987       1.97081307      -0.93128951       0.00000000
Si      -1.47057716       1.88955855      -2.01842146       0.00000000
Si       3.05518298      -1.71388719      -0.05459449       0.00000000
Si      -2.30138345      -0.27793998      -2.72917663       0.00000000
Si      -2.73365489       2.35811435      -0.08331221       0.00000000
Si      -2.83826927      -0.95980680       2.13360042       0.00000000
Si       3.06536423       2.23158339       0.28269333       0.00000000
