10
Lattice="16.28999089631971 0.0 0.0 0.0 16.28999089631971 0.0 0.0 0.0 34.2284985734139" Properties=species:S:1:pos:R:3:initial_magmoms:R:1 pbc="T T T"
Si      -0.14453532      -1.32828660      -1.90745261       0.00000000
Si      -1.92253995       1.19032659      -0.81765083       0.00000000
Si       1.88194786       1.49372784      -0.43702971       0.00000000
Si       0.12477977      -1.80424782       1.73569390       0.00000000
Si       2.86392535       0.67711014       1.56602314       0.00000000
Si      -1.50637932       0.33381468      -2.96826283       0.00000000
Si       1.40476163      -0.40770612       3.14568091       0.00000000
Si       0.60602872       3.11300271      -1.75804513       0.00000000
Si       1.42738844      -3.41656686       0.27091872       0.00000000
Si      -1.27191735       3.56299767      -0.39023933       0.00000000
