10
Lattice="16.28999089631971 0.0 0.0 0.0 16.28999089631971 0.0 0.0 0.0 34.2284985734139" Properties=species:S:1:pos:R:3:initial_magmoms:R:1 pbc="T T T"
Si      -1.87794608       0.44999496       1.36780580       0.00000000
Si       1.06390479       2.01556237      -0.68600795       0.00000000
Si      -0.92300999      -0.95809635      -1.98029089       0.00000000
Si       1.27591914      -1.61927487       1.32101541       0.00000000
Si      -2.52856868      -1.92267612       0.94039430       0.00000000
Si      -0.60602872      -3.11300271       1.75804513       0.00000000
Si       3.04190175       1.88008984       0.68857509       0.00000000
Si       3.16762797      -1.83115890      -0.23737477       0.00000000
Si      -2.11240805      -2.77918803      -1.21021770       0.00000000
Si       0.72586122      -1.81938123      -3.34381812       0.00000000
