10
Lattice="10.86 0.0 0.0 0.0 10.86 0.0 0.0 0.0 10.86" Properties=species:S:1:pos:R:3:initial_magmoms:R:1 pbc="T T T"
Si       1.43708208       1.29326310       1.16039100       0.00000000
Si      -1.27791792       1.29326310      -1.55460900       0.00000000
Si       1.43708208      -1.42173690      -1.55460900       0.00000000
Si       0.16676616       2.51312346       2.63581974       0.00000000
Si      -2.42618916       2.72717406      -0.20035614       0.00000000
Si       2.79458208      -0.06423690       2.51789100       0.00000000
Si       2.79458208       2.65076310      -0.19710900       0.00000000
Si      -2.63851302      -2.81902794      -0.34667292       0.00000000
Si      -2.63541792      -0.06423690      -2.91210900       0.00000000
Si       0.07958208       2.65076310      -2.91210900       0.00000000
