10
Lattice="10.86 0.0 0.0 0.0 10.86 0.0 0.0 0.0 10.86" Properties=species:S:1:pos:R:3:initial_magmoms:R:1 pbc="T T T"
Si      -1.35818418      -1.22175000       1.29444684       0.00000000
Si       1.35681582       1.49325000       1.29444684       0.00000000
Si       1.37579910      -1.36780614      -1.42325730       0.00000000
Si      -1.35818418       1.49325000      -1.42055316       0.00000000
Si       0.04102908      -2.60231664      -2.67650130       0.00000000
Si      -2.71568418      -2.57925000      -0.06305316       0.00000000
Si       0.07318554      -2.80127184       2.50318656       0.00000000
Si      -2.71568418       0.13575000       2.65194684       0.00000000
Si      -2.71568418       0.13575000      -2.77805316       0.00000000
Si      -0.00068418       2.85075000       2.65194684       0.00000000
