10
Lattice="16.290000149 0.0 0.0 0.0 16.290000149 0.0 0.0 0.0 29.1751946751" Properties=species:S:1:pos:R:3:initial_magmoms:R:1 pbc="T T T"
Si      -1.37068948       1.38733786       1.31022882       0.00000000
Si      -1.35985663      -1.34604271      -1.36738302       0.00000000
Si       1.35428545       1.34703640      -1.37397662       0.00000000
Si       1.34715043      -1.33387408       1.40691541       0.00000000
Si       0.01311345       2.73816984       2.64887428       0.00000000
Si       2.67156002      -2.72851149       0.04312094       0.00000000
Si      -2.69518052      -2.70977962       0.00175051       0.00000000
Si      -0.06643062      -2.61719541       2.78809830       0.00000000
Si      -0.00939933      -2.69584353      -2.74001758       0.00000000
Si       2.72909630       2.71073747      -0.04280001       0.00000000
