10
Lattice="16.290000149 0.0 0.0 0.0 16.290000149 0.0 0.0 0.0 29.1751946751" Properties=species:S:1:pos:R:3:initial_magmoms:R:1 pbc="T T T"
Si       1.08126505      -1.42141654      -1.49814625       0.00000000
Si      -1.54709389       1.32423040      -1.18299579       0.00000000
Si      -1.05547798      -1.76036258       1.18352095       0.00000000
Si       2.12711564       0.96821245       0.67972369       0.00000000
Si       0.21437640       0.80544277       3.38184269       0.00000000
Si       2.37517976      -2.71578737      -0.07101242       0.00000000
Si      -0.20372274       2.70185942      -2.49748419       0.00000000
Si       2.49759911      -0.09471006      -2.73508698       0.00000000
Si      -1.40991580      -0.88021387       3.31920355       0.00000000
Si       0.54428149      -3.53955639       1.09506176       0.00000000
