10
Lattice="16.290000149 0.0 0.0 0.0 16.290000149 0.0 0.0 0.0 29.1751946751" Properties=species:S:1:pos:R:3:initial_magmoms:R:1 pbc="T T T"
Si      -1.34273932       1.35752716      -1.36974621       0.00000000
Si       1.32709071      -1.34863282      -1.39641234       0.00000000
Si       1.34796634       1.37824804       1.35197852       0.00000000
Si      -1.34410768      -1.37182978       1.36312345       0.00000000
Si       2.66572473      -2.70728399      -0.03264704       0.00000000
Si      -2.68671320       2.72256401      -0.01884718       0.00000000
Si      -2.70930743      -2.71093295      -0.01038637       0.00000000
Si      -2.72496212      -0.02785590       2.70136045       0.00000000
Si       2.71816224       0.03640815       2.71017136       0.00000000
Si       2.70742713       2.72826552      -0.00300505       0.00000000
