10
Lattice="16.290000149 0.0 0.0 0.0 16.290000149 0.0 0.0 0.0 29.1751946751" Properties=species:S:1:pos:R:3:initial_magmoms:R:1 pbc="T T T"
Si       0.35443782      -0.88014871      -2.13568260       0.00000000
Si      -1.81286525       1.46997703       0.16775737       0.00000000
Si       1.62429220       1.68565664       0.06263914       0.00000000
Si       0.22493232      -1.51591483       1.83622840       0.00000000
H       -0.90658738      -1.46202751       2.84003015       0.00000000
Si       1.06785838       2.72313416       2.06919233       0.00000000
Si       2.28543815      -0.82021780       2.74042604       0.00000000
Si       1.40991580       0.88021387      -3.31920355       0.00000000
Si      -3.63718236       0.18093303       0.81815998       0.00000000
H       -1.79103665       0.35306946       3.29729298       0.00000000
