10
Lattice="16.290000149 0.0 0.0 0.0 16.290000149 0.0 0.0 0.0 29.1751946751" Properties=species:S:1:pos:R:3:initial_magmoms:R:1 pbc="T T T"
Si      -1.29898758      -1.29066811       1.47220658       0.00000000
Si      -1.45001217       1.38494323      -1.22671774       0.00000000
Si       1.36218594       1.39497787       1.31883258       0.00000000
Si       1.43163510      -1.30791923      -1.35193768       0.00000000
Si      -2.62365781      -2.62721164       0.13464936       0.00000000
Si      -0.12943073       2.71176374      -2.59228898       0.00000000
Si       0.08517976      -2.52152130      -2.83434390       0.00000000
Si       2.71076338      -2.68011227       0.03629686       0.00000000
Si       2.65637107       0.04225626       2.75095536       0.00000000
Si       0.01194562       2.72176580       2.72557294       0.00000000
