10
Lattice="16.290000149 0.0 0.0 0.0 16.290000149 0.0 0.0 0.0 29.1751946751" Properties=species:S:1:pos:R:3:initial_magmoms:R:1 pbc="T T T"
Si       1.74633689       0.31947622      -1.49292389       0.00000000
Si      -1.91839187       1.06122998      -0.77629358       0.00000000
Si       0.64154908       0.67564893       2.14592309       0.00000000
Si      -0.04579119      -2.14795869       0.97485995       0.00000000
Si       1.86694805      -1.98518901      -1.72725905       0.00000000
Si      -0.60222502      -1.11048117       2.98141314       0.00000000
H        1.33332022       2.98523212       0.00341350       0.00000000
Si      -0.75650761       2.49956206      -2.28123765       0.00000000
Si      -2.89422804       1.46667831       1.37476435       0.00000000
Si       2.15047550      -2.86991521       0.51459208       0.00000000
