10
Lattice="16.290000149 0.0 0.0 0.0 16.290000149 0.0 0.0 0.0 29.1751946751" Properties=species:S:1:pos:R:3:initial_magmoms:R:1 pbc="T T T"
Si      -2.19626669       0.72195652       0.46026787       0.00000000
Si      -0.27336249      -2.02797470       1.20035503       0.00000000
Si       1.56768445       1.31733973       1.20662770       0.00000000
Si      -0.28352745       0.88472620      -2.24185113       0.00000000
H        2.24652134      -0.95136859      -1.63065998       0.00000000
H        0.80747902      -1.86111623      -2.18659332       0.00000000
H        1.60516774      -2.61151508      -0.52786680       0.00000000
H        1.03785220      -2.48476259       1.80865784       0.00000000
Si      -2.15047550       2.86991521      -0.51459208       0.00000000
Si      -2.41064309      -0.08348625      -2.92157482       0.00000000
