10
Lattice="16.290000149 0.0 0.0 0.0 16.290000149 0.0 0.0 0.0 29.1751946751" Properties=species:S:1:pos:R:3:initial_magmoms:R:1 pbc="T T T"
Si       1.37114560      -1.34574949      -1.33823700       0.00000000
Si       1.37818288       1.33537276       1.34459720       0.00000000
Si      -1.35011521      -1.36459702       1.35641315       0.00000000
Si      -1.34601013       1.35935164      -1.36860838       0.00000000
Si      -0.00076563       2.70117524       2.65643065       0.00000000
Si      -0.01467729      -2.69588099      -2.66290754       0.00000000
Si      -2.72160290      -0.00790065       2.68890264       0.00000000
Si       2.74183509       0.01260846      -2.67597803       0.00000000
Si      -2.69299766       0.00255753      -2.73103162       0.00000000
Si       2.73494442       2.69105915      -0.01269121       0.00000000
