10
Lattice="16.290000149 0.0 0.0 0.0 16.290000149 0.0 0.0 0.0 29.1751946751" Properties=species:S:1:pos:R:3:initial_magmoms:R:1 pbc="T T T"
Si       1.44607960      -1.19304703      -1.35595072       0.00000000
Si      -1.34447561      -1.46347732       1.23232667       0.00000000
Si      -1.35782201       1.23979933      -1.45885164       0.00000000
Si       1.42744384       1.35881407       1.27952922       0.00000000
Si      -2.70475904      -0.00426798       2.51878938       0.00000000
Si       0.08736327      -2.53855217      -2.69652174       0.00000000
Si      -2.52745266       2.83197548      -0.17170040       0.00000000
Si       0.09813096       2.67338450       2.69894037       0.00000000
Si       2.75706624      -0.03673395       2.64841477       0.00000000
Si       0.04157208      -2.80215696       2.60498165       0.00000000
