10
Lattice="16.290000149 0.0 0.0 0.0 16.290000149 0.0 0.0 0.0 29.1751946751" Properties=species:S:1:pos:R:3:initial_magmoms:R:1 pbc="T T T"
Si      -1.33818442      -1.34768800       1.36925024       0.00000000
Si       1.35184195      -1.36270738      -1.35871799       0.00000000
Si      -1.40669038       1.33778042      -1.33138083       0.00000000
Si       1.34351776       1.34465969       1.38955617       0.00000000
Si       2.65124639       2.69236235      -0.03255952       0.00000000
Si      -2.71749183       0.04443961       2.66970536       0.00000000
Si      -0.05914899       2.69154785      -2.70681621       0.00000000
Si      -0.07775217       2.69856884       2.72332937       0.00000000
Si       2.71516835      -0.01242927      -2.70847920       0.00000000
Si      -2.71751154      -2.71446788       0.01975161       0.00000000
