10
Lattice="16.290000149 0.0 0.0 0.0 16.290000149 0.0 0.0 0.0 29.1751946751" Properties=species:S:1:pos:R:3:initial_magmoms:R:1 pbc="T T T"
Si       1.21642318      -1.41470506       1.44838241       0.00000000
Si      -1.48629961      -1.25035525      -1.37473517       0.00000000
Si      -1.48180357       1.29973399       1.33779938       0.00000000
Si       1.61660332       1.48559263      -0.94037487       0.00000000
Si       2.55743228      -2.77154805       0.10491400       0.00000000
Si       0.88787017       3.67652271      -0.53956605       0.00000000
H        1.10539054      -1.09880938      -3.50093584       0.00000000
Si      -2.79898041      -2.61718400       0.10934863       0.00000000
H        3.04326525      -0.71620615      -2.23146476       0.00000000
Si      -0.18345798       2.58333990       2.84308771       0.00000000
