10
Lattice="16.290000149 0.0 0.0 0.0 16.290000149 0.0 0.0 0.0 29.1751946751" Properties=species:S:1:pos:R:3:initial_magmoms:R:1 pbc="T T T"
Si      -1.32931288       1.31457043       1.41941115       0.00000000
Si      -1.42744384      -1.35881407      -1.27952922       0.00000000
Si       1.32962239      -1.39554802       1.36888555       0.00000000
Si       1.33581259       1.36505689      -1.40702920       0.00000000
Si       0.01863576      -2.55186110      -2.63547994       0.00000000
Si       2.63415818       2.64866280       0.09825914       0.00000000
Si      -2.60844116       2.68676348       0.03117661       0.00000000
Si      -2.74145716      -0.07644897       2.67498899       0.00000000
Si       2.66704769      -0.07100811       2.77371785       0.00000000
Si       2.71186148      -2.75243988       0.04526823       0.00000000
