10
Lattice="16.290000149 0.0 0.0 0.0 16.290000149 0.0 0.0 0.0 29.1751946751" Properties=species:S:1:pos:R:3:initial_magmoms:R:1 pbc="T T T"
H       -0.96213628      -0.06239070       1.17561447       0.00000000
Si      -0.87723280       1.41999931      -1.59667088       0.00000000
Si       0.34034697      -2.12335265      -0.92543718       0.00000000
Si       1.88965631       1.33318990       0.40124645       0.00000000
H        0.97573843       0.32021253       2.44508554       0.00000000
H       -2.17751690      -1.83475901       0.80138425       0.00000000
Si       0.27637614       2.86549085       1.47355156       0.00000000
Si      -0.32079897       0.38252178      -3.60322407       0.00000000
Si      -1.72015886      -2.81904969      -1.82963481       0.00000000
Si       1.57040488      -3.44471601       0.58703409       0.00000000
