10
Lattice="16.290000149 0.0 0.0 0.0 16.290000149 0.0 0.0 0.0 29.1751946751" Properties=species:S:1:pos:R:3:initial_magmoms:R:1 pbc="T T T"
H       -0.65073664      -0.82261243       1.07682726       0.00000000
Si       1.24131430      -1.36928854      -1.41114582       0.00000000
Si      -1.57828924       1.08595657      -1.32338683       0.00000000
Si       1.27420381       1.46554615       1.29613720       0.00000000
H       -2.08977896      -1.73236007       0.52089393       0.00000000
Si      -3.18078543       1.01348236       0.46563611       0.00000000
H       -1.29209023      -2.48275892       2.17962044       0.00000000
Si       2.51004467      -0.02155167       2.65736426       0.00000000
Si      -0.28396728       2.67726152      -2.59988912       0.00000000
Si       2.58393869       0.04372236      -2.72105371       0.00000000
