10
Lattice="16.290000149 0.0 0.0 0.0 16.290000149 0.0 0.0 0.0 29.1751946751" Properties=species:S:1:pos:R:3:initial_magmoms:R:1 pbc="T T T"
Si      -1.27912828       1.37219305      -1.38823454       0.00000000
Si       1.30161988       1.32689708       1.42561088       0.00000000
Si      -1.41214427      -1.39101940       1.25557784       0.00000000
Si       1.32931288      -1.31457043      -1.41941115       0.00000000
Si       2.64780920       2.65715966       0.07917273       0.00000000
Si      -0.04598667      -2.73852822       2.62792065       0.00000000
Si       2.65893527      -2.71011845      -0.05052560       0.00000000
Si      -0.09813096      -2.67338450      -2.69894037       0.00000000
Si      -2.71076338       2.68011227      -0.03629686       0.00000000
Si      -2.69291524      -0.04548168       2.71235366       0.00000000
