10
Lattice="16.290000149 0.0 0.0 0.0 16.290000149 0.0 0.0 0.0 29.1751946751" Properties=species:S:1:pos:R:3:initial_magmoms:R:1 pbc="T T T"
Si      -1.37114560       1.34574949       1.33823700       0.00000000
Si      -1.38582289      -1.35013150      -1.32467054       0.00000000
Si       1.36272367      -1.36580248       1.33558206       0.00000000
Si       1.37068948       1.35835795      -1.33774103       0.00000000
Si       0.00703728       2.68112225       2.68283420       0.00000000
Si      -0.05551632      -2.76961768      -2.61082982       0.00000000
Si      -0.00182448      -2.71333899       2.68551832       0.00000000
Si       2.69764031      -0.00060273      -2.70421962       0.00000000
Si      -2.72126081      -0.01884753       2.69465016       0.00000000
Si       2.72241740      -0.02208924       2.69888056       0.00000000
