10
Lattice="16.290000149 0.0 0.0 0.0 16.290000149 0.0 0.0 0.0 29.1751946751" Properties=species:S:1:pos:R:3:initial_magmoms:R:1 pbc="T T T"
Si      -0.35443782       0.88014871       2.13568260       0.00000000
Si      -1.85186351      -0.93483424      -1.10950348       0.00000000
Si       1.05547798       1.76036258      -1.18352095       0.00000000
Si       1.59975946      -1.77919382      -0.08845919       0.00000000
Si       2.13674303       0.33894603      -2.68166719       0.00000000
Si      -0.66997513      -2.38516553      -2.52327506       0.00000000
Si       1.26985438       2.56580534       2.19832174       0.00000000
Si       2.22619142      -2.18276228       2.06008967       0.00000000
Si       3.43065774      -0.95542480      -1.25453337       0.00000000
Si      -3.14924799      -2.18142650       0.39517801       0.00000000
