10
Lattice="16.290000149 0.0 0.0 0.0 16.290000149 0.0 0.0 0.0 29.1751946751" Properties=species:S:1:pos:R:3:initial_magmoms:R:1 pbc="T T T"
Si      -1.42343650       1.37437102      -1.24875668       0.00000000
Si       1.18188838      -1.45033129      -1.41377158       0.00000000
Si      -1.29738448      -1.24659226       1.50468149       0.00000000
Si       1.85186351       0.93483424       1.10950348       0.00000000
Si       3.45162297      -0.84435958       1.02104429       0.00000000
Si      -0.04781115       2.69369813      -2.61365981       0.00000000
Si       2.57448791      -2.73320138      -0.05056061       0.00000000
Si       2.56484423      -0.11507256      -2.75445930       0.00000000
Si      -2.78089851      -0.00830790      -2.59732171       0.00000000
Si       0.14408505      -2.59799438       2.79098665       0.00000000
