10
Lattice="16.290000149 0.0 0.0 0.0 16.290000149 0.0 0.0 0.0 29.1751946751" Properties=species:S:1:pos:R:3:initial_magmoms:R:1 pbc="T T T"
H       -0.06734286      -1.08015733      -1.05576277       0.00000000
Si       2.20044345       0.18767709       0.64783520       0.00000000
Si      -1.62880453      -0.67302136       1.55640911       0.00000000
Si      -0.46081152       2.13170942      -0.89451147       0.00000000
H       -1.90040771       2.42170400      -0.44273358       0.00000000
H        1.06796101       0.69796135      -2.97890408       0.00000000
Si      -3.16172613      -1.39351177      -0.05706668       0.00000000
H       -1.29051010      -3.23806270       0.66758680       0.00000000
Si       2.98514253      -2.06918840       0.43826977       0.00000000
Si       3.50515191      -0.04597038      -1.27358477       0.00000000
