10
Lattice="16.290000149 0.0 0.0 0.0 16.290000149 0.0 0.0 0.0 29.1751946751" Properties=species:S:1:pos:R:3:initial_magmoms:R:1 pbc="T T T"
Si       1.22050269      -1.27999979      -1.60352705       0.00000000
Si      -1.28889853       1.35075052      -1.50193902       0.00000000
Si      -1.43728414      -1.41780016       1.35159924       0.00000000
Si       1.31920380       1.69345955       1.14054589       0.00000000
H        2.84247357       0.24698898       0.51050756       0.00000000
H        0.17230308       2.63127485       1.45248707       0.00000000
H       -0.96300079       0.85315618       3.37562837       0.00000000
Si      -2.62614464      -2.56584167      -0.34225421       0.00000000
Si       3.44640903      -1.06303328       0.95484577       0.00000000
Si       2.59999691      -2.72595234      -0.44063297       0.00000000
