10
Lattice="16.290000149 0.0 0.0 0.0 16.290000149 0.0 0.0 0.0 29.1751946751" Properties=species:S:1:pos:R:3:initial_magmoms:R:1 pbc="T T T"
Si       1.37455021      -1.34647114       1.33657402       0.00000000
Si       1.36454815       1.34753651      -1.34993626       0.00000000
Si      -1.34987086      -1.36971697      -1.35145337       0.00000000
Si      -1.35045730       1.34980082       1.37263456       0.00000000
Si       0.01987380      -2.70131045       2.67095990       0.00000000
Si       0.00182448       2.71333899      -2.68551832       0.00000000
Si      -2.73277785      -0.01045166      -2.67323556       0.00000000
Si      -2.71943633       2.69449146       0.00913184       0.00000000
Si       2.72424188       2.69124975       0.01336224       0.00000000
Si       2.72723924      -0.01512689      -2.69543789       0.00000000
