10
Lattice="16.290000149 0.0 0.0 0.0 16.290000149 0.0 0.0 0.0 29.1751946751" Properties=species:S:1:pos:R:3:initial_magmoms:R:1 pbc="T T T"
Si       1.35869353      -1.33928236       1.38148340       0.00000000
Si      -1.50702701      -1.38390067      -1.16830025       0.00000000
Si      -1.40029493       1.34962651       1.36887679       0.00000000
Si       1.48702615       1.19979109      -1.43617522       0.00000000
Si      -2.64617043       0.11660382      -2.55416868       0.00000000
Si      -0.24408610      -2.81254998      -2.49447623       0.00000000
Si       2.66050889       2.66745494       0.01490852       0.00000000
Si       0.13020108       2.60576471      -2.75188897       0.00000000
Si      -0.01541034      -2.70068654       2.74282132       0.00000000
Si       2.67922610       0.00161271       2.77576011       0.00000000
