10
Lattice="16.290000149 0.0 0.0 0.0 16.290000149 0.0 0.0 0.0 29.1751946751" Properties=species:S:1:pos:R:3:initial_magmoms:R:1 pbc="T T T"
Si      -1.35651718      -1.34384356      -1.30486058       0.00000000
Si       1.39259953      -1.28287009       1.36321097       0.00000000
Si       1.38295585       1.33525873      -1.34068772       0.00000000
Si      -1.18188838       1.45033129       1.41377158       0.00000000
Si       2.26973459       0.60597172       2.43481587       0.00000000
Si       0.66997513       2.38516553       2.52327506       0.00000000
Si       0.08197128      -2.67753845      -2.58810234       0.00000000
Si      -2.66465306       0.08451252      -2.60263159       0.00000000
Si       0.01855431      -2.60565068       2.71828206       0.00000000
Si      -2.72947098      -2.59675634       0.12877931       0.00000000
