10
Lattice="16.290000149 0.0 0.0 0.0 16.290000149 0.0 0.0 0.0 29.1751946751" Properties=species:S:1:pos:R:3:initial_magmoms:R:1 pbc="T T T"
Si      -1.35467641      -1.35483931       1.33438588       0.00000000
Si      -1.37455021       1.34647114      -1.33657402       0.00000000
Si       1.30640914       1.31380317       1.44656450       0.00000000
Si       1.35311257      -1.38531790      -1.33669072       0.00000000
Si       0.04132773      -2.80530093       2.52768052       0.00000000
Si       2.67320531       2.67314015       0.06958284       0.00000000
Si      -0.01000206       2.69400764      -2.68651028       0.00000000
Si       2.71265969      -0.02163312      -2.67915813       0.00000000
Si      -2.72442107      -0.02324583      -2.68802739       0.00000000
Si      -2.72500751       2.69627195       0.03606054       0.00000000
