10
Lattice="16.290000149 0.0 0.0 0.0 16.290000149 0.0 0.0 0.0 29.1751946751" Properties=species:S:1:pos:R:3:initial_magmoms:R:1 pbc="T T T"
Si      -1.44607960       1.19304703       1.35595072       0.00000000
Si      -1.35871633      -1.34550514      -1.34057102       0.00000000
Si       1.27982386      -1.49597587       1.33646199       0.00000000
Si       1.31268079       1.36682875      -1.48408380       0.00000000
Si       2.16142238      -0.50940459      -2.59571707       0.00000000
Si       0.36347877      -2.10124712      -2.71869052       0.00000000
Si      -0.01863576       2.55186110       2.63547994       0.00000000
Si      -2.80390161       2.43284636      -0.10290091       0.00000000
Si       2.69322572      -0.20057877       2.68074818       0.00000000
Si      -2.79055522      -0.27043029       2.58827740       0.00000000
