10
Lattice="16.290000149 0.0 0.0 0.0 16.290000149 0.0 0.0 0.0 29.1751946751" Properties=species:S:1:pos:R:3:initial_magmoms:R:1 pbc="T T T"
Si       1.34759026       1.36190917       1.35095739       0.00000000
Si      -1.34303069       1.35762490      -1.36370695       0.00000000
Si       1.35905842      -1.35563752      -1.35402078       0.00000000
Si      -1.36806679      -1.36474363       1.34413039       0.00000000
Si      -0.03363885      -2.69904125      -2.68333018       0.00000000
Si       2.69083109      -0.02174715       2.69362902       0.00000000
Si      -2.67806430      -0.01953171      -2.70871260       0.00000000
Si      -0.04064355       2.71280630       2.68522657       0.00000000
Si       2.69640227       2.70897815      -0.02757056       0.00000000
Si       2.68903919      -2.72588717       0.01811780       0.00000000
