10
Lattice="16.290000149 0.0 0.0 0.0 16.290000149 0.0 0.0 0.0 29.1751946751" Properties=species:S:1:pos:R:3:initial_magmoms:R:1 pbc="T T T"
Si      -1.34759026      -1.36190917      -1.35095739       0.00000000
Si       1.34324083      -1.38365632       1.34267163       0.00000000
Si      -1.38823381       1.35089713       1.33426918       0.00000000
Si       1.34881201       1.34706898      -1.37852795       0.00000000
Si       2.70896186      -0.02497257       2.67253536       0.00000000
Si      -0.03766248       2.73707841       2.65800611       0.00000000
Si      -2.69062095      -0.00428427      -2.71466434       0.00000000
Si       2.71389773       2.70259247      -0.03168426       0.00000000
Si       0.01146816      -2.71754669      -2.70497817       0.00000000
Si      -0.03200985      -2.71964810       2.70477395       0.00000000
