10
Lattice="16.290000149 0.0 0.0 0.0 16.290000149 0.0 0.0 0.0 29.1751946751" Properties=species:S:1:pos:R:3:initial_magmoms:R:1 pbc="T T T"
Si       1.35954712       1.36368478      -1.34246741       0.00000000
Si      -1.35311257       1.38531790       1.33669072       0.00000000
Si       1.38750076      -1.34262181       1.34713544       0.00000000
Si      -1.35741313      -1.36264222      -1.35833871       0.00000000
Si      -2.70778898       0.03047859       2.67107660       0.00000000
Si       0.05183478      -2.79039558       2.60467386       0.00000000
Si       2.69123834       2.71812662       0.04134125       0.00000000
Si      -0.00042354       2.71666215      -2.69532118       0.00000000
Si       2.71037909       0.00296478      -2.70258581       0.00000000
Si      -2.72678312      -0.01464471      -2.69978499       0.00000000
