10
Lattice="16.290000149 0.0 0.0 0.0 16.290000149 0.0 0.0 0.0 29.1751946751" Properties=species:S:1:pos:R:3:initial_magmoms:R:1 pbc="T T T"
Si       0.62643196      -0.40356846       2.14854886       0.00000000
Si       1.83089828       0.82376902      -1.16607418       0.00000000
Si      -0.87713506      -1.88884181      -1.07160490       0.00000000
Si      -1.59975946       1.77919382       0.08845919       0.00000000
H        2.67384062       1.76192642      -0.36008025       0.00000000
Si      -2.26973459      -0.60597172      -2.43481587       0.00000000
Si       0.53698356       2.11813985      -2.59320800       0.00000000
Si      -1.49648086      -0.99136054       3.15299246       0.00000000
Si      -3.45162297       0.84435958      -1.02104429       0.00000000
Si      -0.54428149       3.53955639      -1.09506176       0.00000000
