10
Lattice="16.290000149 0.0 0.0 0.0 16.290000149 0.0 0.0 0.0 29.1751946751" Properties=species:S:1:pos:R:3:initial_magmoms:R:1 pbc="T T T"
H       -1.13151970       0.05388732       1.00380175       0.00000000
Si       0.23278410      -2.13478823      -0.90737773       0.00000000
Si       2.06050583       0.69569704       0.90419763       0.00000000
Si      -0.22493232       1.51591483      -1.83622840       0.00000000
H       -0.45735804       0.98429068       2.63101906       0.00000000
H       -2.01596897       1.86898430       1.46106457       0.00000000
Si       2.35569692      -1.54699615      -1.91182133       0.00000000
H        2.43760304      -2.36786555       0.66221857       0.00000000
Si       3.32226408       0.45164025      -1.03350210       0.00000000
Si       1.72015886       2.81904969       1.82963481       0.00000000
