10
Lattice="16.290000149 0.0 0.0 0.0 16.290000149 0.0 0.0 0.0 29.1751946751" Properties=species:S:1:pos:R:3:initial_magmoms:R:1 pbc="T T T"
H        0.90756478      -0.90833041       0.80106332       0.00000000
Si       1.35034327       1.30883635      -1.39016885       0.00000000
Si      -1.31023729      -1.46873899      -1.28122867       0.00000000
Si      -1.14253174       1.43101135       1.47063404       0.00000000
H       -1.09618669      -1.23523813       2.22367499       0.00000000
Si      -2.57998905       2.65491164       0.10062525       0.00000000
Si      -0.49225122      -2.54526040       2.66801320       0.00000000
Si      -2.65820711      -0.13025484      -2.65313385       0.00000000
Si      -0.00676035       2.66748752      -2.68881512       0.00000000
Si       2.74126494       2.65859318      -0.09931236       0.00000000
