10
Lattice="16.290000149 0.0 0.0 0.0 16.290000149 0.0 0.0 0.0 29.1751946751" Properties=species:S:1:pos:R:3:initial_magmoms:R:1 pbc="T T T"
H       -0.90854218      -0.25627428      -1.51521374       0.00000000
Si      -0.88733260      -1.48553398       1.62059454       0.00000000
Si       1.37246509      -1.52026426      -1.19834195       0.00000000
Si       0.40314492       1.83163133       1.50649035       0.00000000
Si      -1.68692237       1.20700756      -1.39932986       0.00000000
H        0.31151367      -1.10126917       2.49745501       0.00000000
Si      -1.90109189       1.97734538       2.11260502       0.00000000
Si      -0.23791545       2.58605381      -2.62638020       0.00000000
Si       2.67802715      -0.14507874      -2.57698660       0.00000000
Si      -0.14941188      -2.83064817      -2.49351636       0.00000000
