10
Lattice="16.290000149 0.0 0.0 0.0 16.290000149 0.0 0.0 0.0 29.1751946751" Properties=species:S:1:pos:R:3:initial_magmoms:R:1 pbc="T T T"
Si      -1.35531172      -1.34392501       1.37578548       0.00000000
Si       1.33494922       1.35120664       1.39425338       0.00000000
Si      -1.37684710       1.34705269      -1.35938902       0.00000000
Si       1.36278883      -1.37383345      -1.34944028       0.00000000
Si       2.71459820      -2.69262299       0.05832121       0.00000000
Si       2.69869916       2.71272485       0.06453553       0.00000000
Si      -2.71551044      -2.69819417       0.02214397       0.00000000
Si      -0.02383227       2.74494648      -2.67955491       0.00000000
Si       2.73023660      -0.02384856      -2.69974706       0.00000000
Si      -2.72875421       2.71653671      -0.00110866       0.00000000
