10
Lattice="16.290000149 0.0 0.0 0.0 16.290000149 0.0 0.0 0.0 29.1751946751" Properties=species:S:1:pos:R:3:initial_magmoms:R:1 pbc="T T T"
Si       1.34167211       1.36125757       1.35512944       0.00000000
Si      -1.33599178       1.37479456      -1.35399161       0.00000000
Si       1.36493911      -1.35135325      -1.35046141       0.00000000
Si      -1.35462754      -1.34843734       1.37260538       0.00000000
Si      -2.69500133       0.00943191      -2.68505152       0.00000000
Si       2.67059891       0.00114030       2.71939072       0.00000000
Si      -0.00495216      -2.72145629      -2.67492772       0.00000000
Si      -2.68266980       2.72254772       0.01289544       0.00000000
Si       2.69324201      -2.71213841       0.02322345       0.00000000
Si       2.69236235       2.72619668      -0.00936524       0.00000000
