10
Lattice="16.290000149 0.0 0.0 0.0 16.290000149 0.0 0.0 0.0 29.1751946751" Properties=species:S:1:pos:R:3:initial_magmoms:R:1 pbc="T T T"
Si       1.34350147      -1.33092559      -1.38695958       0.00000000
Si      -1.36329382       1.33944526      -1.36385283       0.00000000
Si      -1.35145099      -1.39163842       1.32703373       0.00000000
Si       1.37044513       1.34747623       1.35650068       0.00000000
Si      -2.72903115      -0.04377123       2.64846582       0.00000000
Si       2.68861565      -2.71143794      -0.03185931       0.00000000
Si      -2.69868287      -0.06494823      -2.70229406       0.00000000
Si      -2.71844264       2.69249267       0.00192556       0.00000000
Si       2.71777951       2.70124040      -0.00148793       0.00000000
Si       0.02647125       2.71251308       2.70739972       0.00000000
