10
Lattice="16.290000149 0.0 0.0 0.0 16.290000149 0.0 0.0 0.0 29.1751946751" Properties=species:S:1:pos:R:3:initial_magmoms:R:1 pbc="T T T"
H       -0.65059003       0.42269292      -0.04364609       0.00000000
Si       1.98488765       0.62051869       1.08175787       0.00000000
H       -1.79478335      -1.21498966       1.07939468       0.00000000
Si       0.75083869      -0.55842121      -2.50136449       0.00000000
Si       0.20237067       2.16489215       1.71080424       0.00000000
Si      -2.51460587      -1.29484324      -0.24457566       0.00000000
Si      -0.90600094      -2.08378424      -1.76734577       0.00000000
Si       2.60885981       0.28442340      -1.24694782       0.00000000
Si       1.22455189      -1.25371099       2.36205294       0.00000000
Si      -0.73249615       1.24356232      -2.61768599       0.00000000
