10
Lattice="16.290000149 0.0 0.0 0.0 16.290000149 0.0 0.0 0.0 29.1751946751" Properties=species:S:1:pos:R:3:initial_magmoms:R:1 pbc="T T T"
Si      -1.39663619       1.31636233       1.32198642       0.00000000
Si       1.36461657      -1.24036948       1.44746893       0.00000000
Si       1.33182480       1.39696525      -1.34345936       0.00000000
Si      -1.39109759      -1.37570680      -1.31323386       0.00000000
Si       2.56514071      -2.64181448      -0.03112993       0.00000000
Si      -0.10294629       2.73782775       2.62591340       0.00000000
Si       2.62995862       0.03945438      -2.76254083       0.00000000
Si      -2.72071999       2.68591151      -0.01721336       0.00000000
Si      -0.00808799      -2.65439036       2.75831043       0.00000000
Si      -2.73044512      -0.01127268      -2.69050728       0.00000000
