10
Lattice="16.290000149 0.0 0.0 0.0 16.290000149 0.0 0.0 0.0 29.1751946751" Properties=species:S:1:pos:R:3:initial_magmoms:R:1 pbc="T T T"
Si       1.33532389       1.36373691      -1.36913354       0.00000000
Si      -1.36142047      -1.34263484      -1.37762352       0.00000000
Si      -1.42534243       1.36215678       1.29829616       0.00000000
Si       1.40033728      -1.34126648       1.36008923       0.00000000
Si       2.70565499      -2.68737436      -0.07080820       0.00000000
Si       0.05696613      -2.71889551       2.67457762       0.00000000
Si       2.69518052       2.70977962      -0.00175051       0.00000000
Si      -0.13287753       2.79929317       2.61123827       0.00000000
Si      -2.72474687      -2.69291296      -0.02786231       0.00000000
Si       2.62874990       0.09258422       2.78634779       0.00000000
