10
Lattice="16.290000149 0.0 0.0 0.0 16.290000149 0.0 0.0 0.0 29.1751946751" Properties=species:S:1:pos:R:3:initial_magmoms:R:1 pbc="T T T"
Si       0.74077147      -1.32155884       1.79185293       0.00000000
Si      -1.75309724       0.97585246       1.26351933       0.00000000
Si       1.38862477       1.82127089      -0.75438301       0.00000000
Si       0.11334582      -1.72809209      -1.80714073       0.00000000
H       -2.13389228      -0.24552288      -1.31693911       0.00000000
Si       2.88689754       0.56459512      -2.03826663       0.00000000
Si       2.73851192      -2.20395557       0.81527164       0.00000000
Si      -0.77636512      -3.16966913       1.72772585       0.00000000
Si      -2.78185962       0.59743576      -2.39315369       0.00000000
Si       1.54965142      -3.35199708      -0.87858181       0.00000000
