10
Lattice="16.290000149 0.0 0.0 0.0 16.290000149 0.0 0.0 0.0 29.1751946751" Properties=species:S:1:pos:R:3:initial_magmoms:R:1 pbc="T T T"
Si      -0.65500462       0.42213906      -2.13142302       0.00000000
Si      -1.90741241      -0.78999985       1.12269067       0.00000000
Si       0.85810834       1.93665296       1.04007527       0.00000000
Si       1.70496029      -1.66855214      -0.12671954       0.00000000
H       -1.21256245      -2.61780302      -0.80065487       0.00000000
Si       2.17249958       0.67297249       2.51335550       0.00000000
Si      -0.65798569      -2.16054272       2.53569494       0.00000000
Si       3.43046226      -0.72751141       1.14805850       0.00000000
Si       0.83966806      -3.39634774       1.25571205       0.00000000
Si      -2.35483355       2.02093742      -2.14533959       0.00000000
