10
Lattice="16.290000149 0.0 0.0 0.0 16.290000149 0.0 0.0 0.0 29.1751946751" Properties=species:S:1:pos:R:3:initial_magmoms:R:1 pbc="T T T"
Si      -1.34162812      -1.34858395       1.37108827       0.00000000
Si       1.32295978      -1.37041255      -1.37409332       0.00000000
Si      -1.35915616       1.32506119      -1.39206524       0.00000000
Si       1.34298019       1.32709744       1.40860757       0.00000000
Si       2.69946479       2.67524156       0.01697996       0.00000000
Si       2.62607834      -2.75146248       0.00049598       0.00000000
Si      -2.73473265       0.00539199       2.68254245       0.00000000
Si      -2.73256607       2.68452686      -0.07238366       0.00000000
Si       2.67758732      -0.02197521      -2.74669870       0.00000000
Si      -0.04942386       2.67375917       2.75839796       0.00000000
