10
Lattice="16.290000149 0.0 0.0 0.0 16.290000149 0.0 0.0 0.0 29.1751946751" Properties=species:S:1:pos:R:3:initial_magmoms:R:1 pbc="T T T"
Si      -1.37894851       1.36580248       1.31183345       0.00000000
Si      -1.37818288      -1.33537276      -1.34459720       0.00000000
Si       1.35676153       1.35568639      -1.35728841       0.00000000
Si       1.35482302      -1.35158131       1.36872508       0.00000000
Si       0.00117288       2.70562241       2.64117202       0.00000000
Si      -0.00703728      -2.68112225      -2.68283420       0.00000000
Si      -2.73406476       0.01541034       2.67416917       0.00000000
Si       2.71538012      -2.70321149       0.01604636       0.00000000
Si       0.00099369       2.72605007      -2.69634232       0.00000000
Si      -2.72829809      -2.69996978       0.01181595       0.00000000
