10
Lattice="16.290000149 0.0 0.0 0.0 16.290000149 0.0 0.0 0.0 29.1751946751" Properties=species:S:1:pos:R:3:initial_magmoms:R:1 pbc="T T T"
Si      -1.38290698       1.35926531      -1.32178219       0.00000000
Si      -1.37697742      -1.35527914       1.33211021       0.00000000
Si       1.34987086       1.36971697       1.35145337       0.00000000
Si       1.35075052      -1.37671678      -1.34844832       0.00000000
Si      -0.00716760      -2.69695613       2.68531409       0.00000000
Si      -0.03412755       2.73292446      -2.65873549       0.00000000
Si      -2.73869111      -0.01251072      -2.65975662       0.00000000
Si       2.72442107       0.02324583       2.68802739       0.00000000
Si      -2.69733080       0.01314603       2.71559795       0.00000000
Si       2.73043209      -0.03310128      -2.68359276       0.00000000
