10
Lattice="16.290000149 0.0 0.0 0.0 16.290000149 0.0 0.0 0.0 29.1751946751" Properties=species:S:1:pos:R:3:initial_magmoms:R:1 pbc="T T T"
Si       1.38533419      -1.31440753      -1.35842624       0.00000000
Si       1.37161801       1.36129015       1.32662528       0.00000000
Si      -1.35576784       1.37036368      -1.33905391       0.00000000
Si      -1.35676153      -1.35568639       1.35728841       0.00000000
Si       0.00689067      -2.67845069      -2.66328682       0.00000000
Si      -0.00596214       2.70915734       2.64805737       0.00000000
Si       0.02438613       2.68798034      -2.70270251       0.00000000
Si       2.71461449      -2.68117112       0.01750512       0.00000000
Si      -2.73571005       0.01011609       2.66912186       0.00000000
Si      -2.73494442      -2.69105915       0.01269121       0.00000000
