10
Lattice="16.290000149 0.0 0.0 0.0 16.290000149 0.0 0.0 0.0 29.1751946751" Properties=species:S:1:pos:R:3:initial_magmoms:R:1 pbc="T T T"
Si       0.06734286       1.08015733       1.05576277       0.00000000
H        1.13530387       1.77811868      -1.92314131       0.00000000
H       -1.22316724      -2.15790537       1.72334957       0.00000000
Si      -2.47202381      -1.38855961      -1.04744784       0.00000000
Si      -1.56146167       0.40713597       2.61217188       0.00000000
Si      -0.47428335      -2.27095634      -2.02402913       0.00000000
Si       2.26778631       1.26783442       1.70359797       0.00000000
Si      -0.39346866       3.21186675       0.16125130       0.00000000
Si      -3.09438327      -0.31335444       0.99869609       0.00000000
Si       2.28220459       0.84030337      -2.23508249       0.00000000
