10
Lattice="16.290000149 0.0 0.0 0.0 16.290000149 0.0 0.0 0.0 29.1751946751" Properties=species:S:1:pos:R:3:initial_magmoms:R:1 pbc="T T T"
H        1.08203068      -1.71186725      -0.78789801       0.00000000
Si      -0.25394481       0.51153858      -2.30025258       0.00000000
Si      -1.74386081       1.54277704       0.45571800       0.00000000
Si       1.94235446       0.85160863       1.06408208       0.00000000
Si      -0.83124613      -1.99687709       1.09498153       0.00000000
Si       0.71270380       2.05314975       2.66181493       0.00000000
Si      -2.16912755      -0.84320299       2.65256931       0.00000000
Si       1.98298172      -2.45583155      -1.76418755       0.00000000
Si      -2.15171354      -0.79042339      -2.93186637       0.00000000
Si      -0.70444477       3.39646829       1.40810138       0.00000000
