10
Lattice="16.290000149 0.0 0.0 0.0 16.290000149 0.0 0.0 0.0 29.1751946751" Properties=species:S:1:pos:R:3:initial_magmoms:R:1 pbc="T T T"
Si       1.26258904      -1.40584330       1.37173013       0.00000000
Si      -1.32129820       1.06676695       1.63057246       0.00000000
Si      -1.39474981      -1.37103157      -1.31189180       0.00000000
Si       1.34860024       1.32251995      -1.41808951       0.00000000
H       -2.50888808       1.57859875       0.83347696       0.00000000
Si       2.63709527       0.16552269       2.48242979       0.00000000
Si      -2.01262952      -0.79563619       3.05411773       0.00000000
H       -1.86753449       3.23874525      -0.26931622       0.00000000
Si      -0.35495910      -2.48986136       2.80732476       0.00000000
Si      -0.00234576      -2.71769330      -2.66168219       0.00000000
