10
Lattice="16.290000149 0.0 0.0 0.0 16.290000149 0.0 0.0 0.0 29.1751946751" Properties=species:S:1:pos:R:3:initial_magmoms:R:1 pbc="T T T"
H        1.19884627       0.38426481       0.87686048       0.00000000
Si       0.88733260       1.48553398      -1.62059454       0.00000000
Si       0.55128618      -2.37100952      -0.71377114       0.00000000
Si      -0.75342228      -2.13736205       1.20764883       0.00000000
Si      -2.17365617       1.39918069       1.06614914       0.00000000
H       -0.02120958       1.22925970      -3.13580827       0.00000000
H        2.60405426      -1.67765825       1.38194145       0.00000000
Si      -3.41467725      -0.19332972      -0.33469783       0.00000000
H       -1.88590472      -1.62707779      -2.41909044       0.00000000
Si      -0.24431742      -1.21942054       3.29965617       0.00000000
