10
Lattice="16.290000149 0.0 0.0 0.0 16.290000149 0.0 0.0 0.0 29.1751946751" Properties=species:S:1:pos:R:3:initial_magmoms:R:1 pbc="T T T"
Si       1.33863402      -1.35865117       1.36376530       0.00000000
Si      -1.35165950      -1.35275419      -1.36169386       0.00000000
Si      -1.32709071       1.34863282       1.39641234       0.00000000
Si       1.35860556       1.35167905      -1.36291922       0.00000000
Si      -2.66983003       2.70615998       0.02666613       0.00000000
Si       2.68920535       0.02753010       2.68750223       0.00000000
Si       0.03624688      -2.71383257      -2.68516822       0.00000000
Si      -2.68972012      -2.71005329       0.01913893       0.00000000
Si       2.69865355       2.71430498       0.00242154       0.00000000
Si      -2.69677369       0.02775816      -2.71679413       0.00000000
