10
Lattice="16.290000149 0.0 0.0 0.0 16.290000149 0.0 0.0 0.0 29.1751946751" Properties=species:S:1:pos:R:3:initial_magmoms:R:1 pbc="T T T"
Si       1.30311856      -1.38104992       1.37458930       0.00000000
Si      -1.37285605      -1.38443824      -1.30903263       0.00000000
Si      -1.32295978       1.37041255       1.37409332       0.00000000
Si       1.35462754       1.34843734      -1.37260538       0.00000000
Si      -2.68211594       2.69547374      -0.01797192       0.00000000
Si       2.68129656      -0.01819593       2.70885848       0.00000000
Si      -2.69636969      -0.01985751      -2.70182725       0.00000000
Si      -0.00171045      -2.72476968      -2.67396494       0.00000000
Si       2.69629965       2.70969491      -0.01747594       0.00000000
Si      -2.66458790       0.02182860       2.74518159       0.00000000
