10
Lattice="16.290000149 0.0 0.0 0.0 16.290000149 0.0 0.0 0.0 29.1751946751" Properties=species:S:1:pos:R:3:initial_magmoms:R:1 pbc="T T T"
Si       1.34618932       1.33026259      -1.34643815       0.00000000
Si      -1.35601219       1.39547146       1.28904763       0.00000000
Si       1.37081980      -1.36064996       1.31317551       0.00000000
Si      -1.30161988      -1.32689708      -1.42561088       0.00000000
Si      -2.68046903       0.01157893       2.65071231       0.00000000
Si      -0.01669725      -2.72001789       2.61716084       0.00000000
Si       0.03668508       2.73887519       2.61835702       0.00000000
Si       2.72660393       0.01112607       2.65114994       0.00000000
Si      -2.58074816       0.04529597      -2.81384541       0.00000000
Si      -2.65019732       2.74819307      -0.14307515       0.00000000
