10
Lattice="16.290000149 0.0 0.0 0.0 16.290000149 0.0 0.0 0.0 29.1751946751" Properties=species:S:1:pos:R:3:initial_magmoms:R:1 pbc="T T T"
H        1.35801586       0.58790611       0.27284642       0.00000000
Si      -0.48812985       0.41576967      -2.20628657       0.00000000
Si      -1.38414502       1.32831919       1.32341601       0.00000000
Si      -0.47917035      -2.20143062       0.60483096       0.00000000
H        2.24246513      -1.22719087      -0.18441641       0.00000000
H        2.91662679      -0.29678751       1.44280090       0.00000000
Si       0.59111524      -2.14404095       2.70862507       0.00000000
Si       1.33618726       1.70481368      -2.85668919       0.00000000
Si       0.15306084       2.64160271       2.51370560       0.00000000
Si      -2.78340717      -2.05571657       1.21094563       0.00000000
