10
Lattice="16.290000149 0.0 0.0 0.0 16.290000149 0.0 0.0 0.0 29.1751946751" Properties=species:S:1:pos:R:3:initial_magmoms:R:1 pbc="T T T"
Si      -0.38452545      -0.64676188      -2.22312066       0.00000000
Si      -1.99212041      -0.59906476       1.17152994       0.00000000
Si       0.76895317       2.04283118       1.00937421       0.00000000
Si       1.48698379      -1.86896801       0.35135687       0.00000000
H       -2.25038207       2.08155251      -0.27328405       0.00000000
Si       1.79098778       0.70498234       2.62751803       0.00000000
H        2.74830222       1.94624777      -0.03431003       0.00000000
Si      -2.14824377      -2.13211667      -1.88923973       0.00000000
Si      -1.06499134      -1.64335150       3.00501588       0.00000000
H       -0.45559872       3.29654217      -1.35267873       0.00000000
