10
Lattice="16.290000149 0.0 0.0 0.0 16.290000149 0.0 0.0 0.0 29.1751946751" Properties=species:S:1:pos:R:3:initial_magmoms:R:1 pbc="T T T"
H        1.97934905      -0.09658341      -1.04368424       0.00000000
Si       1.02203461      -1.33784884       1.61814382       0.00000000
Si       0.76033576       1.87422968      -1.28029507       0.00000000
Si      -0.76895317      -2.04283118      -1.00937421       0.00000000
Si      -1.07173540       1.10886031       1.86867122       0.00000000
H       -1.22455189       1.25371099      -2.36205294       0.00000000
H       -3.01933524       0.03872133      -1.28265826       0.00000000
H       -1.87514192       1.67640392      -2.40569903       0.00000000
H        2.31676382      -0.78954373       2.54413533       0.00000000
Si      -1.02218122       3.41860314      -0.65124870       0.00000000
