10
Lattice="16.290000149 0.0 0.0 0.0 16.290000149 0.0 0.0 0.0 29.1751946751" Properties=species:S:1:pos:R:3:initial_magmoms:R:1 pbc="T T T"
Si      -1.53720586      -1.31328352      -1.19028959       0.00000000
Si      -1.41128416       1.17737605       1.46885435       0.00000000
Si       1.38725641      -1.31756779       1.42952619       0.00000000
Si       0.78195259       1.49744523      -1.71097929       0.00000000
H        1.20495502      -2.05369661      -2.24085918       0.00000000
Si      -1.28761048       2.22236164      -2.55630138       0.00000000
Si      -0.15306084      -2.64160271      -2.51370560       0.00000000
Si      -2.57380048       0.23348457      -2.66848001       0.00000000
Si       0.03528414       2.61874296       2.74357696       0.00000000
H       -0.60639526       3.77924745       0.01601718       0.00000000
