10
Lattice="16.290000149 0.0 0.0 0.0 16.290000149 0.0 0.0 0.0 29.1751946751" Properties=species:S:1:pos:R:3:initial_magmoms:R:1 pbc="T T T"
Si      -1.25216344       1.34322943       1.48487416       0.00000000
Si       1.35646831      -1.38622151       1.39848378       0.00000000
Si      -1.44656830      -1.44136691      -1.27472261       0.00000000
Si       1.52249599       1.37277949      -1.28222063       0.00000000
H       -0.64167940       1.16050450      -2.72755977       0.00000000
Si      -0.03528414      -2.61874296      -2.74357696       0.00000000
Si      -2.58778544      -0.06451492       2.83668959       0.00000000
Si      -2.88591036       2.52651875       0.27016230       0.00000000
Si       0.13587489       2.61731921       2.86284807       0.00000000
Si       3.72614205       0.99056722      -0.47888165       0.00000000
