10
Lattice="16.2900001489832 0.0 0.0 0.0 16.2900001489832 0.0 0.0 0.0 29.32587717646782" Properties=species:S:1:pos:R:3:initial_magmoms:R:1 pbc="T T T"
Si       0.52340585      -0.35953659      -2.26756480       0.00000000
Si       1.54560336       1.73496647       0.44563603       0.00000000
Si       0.36131872      -1.81861562       1.47403589       0.00000000
Si      -2.34268936      -0.04774599       0.47903820       0.00000000
H       -1.29317352       2.40692734      -0.75868977       0.00000000
Si      -0.72181479       2.19944813       2.86340797       0.00000000
Si      -1.18753287      -3.45118314       0.70775072       0.00000000
Si      -1.01302982      -1.91298359      -3.03977380       0.00000000
Si      -2.58528004       0.75238624       2.68710080       0.00000000
Si       0.36145556       3.78726213       0.30674868       0.00000000
