10
Lattice="16.2900001489832 0.0 0.0 0.0 16.2900001489832 0.0 0.0 0.0 29.32587717646782" Properties=species:S:1:pos:R:3:initial_magmoms:R:1 pbc="T T T"
Si       1.44210973      -0.36839998      -1.80223644       0.00000000
Si      -0.82355236       1.93534161       1.08044743       0.00000000
Si       1.92163846      -0.78745046       1.14912570       0.00000000
Si      -1.77221681      -1.69464057      -0.20438084       0.00000000
Si      -2.15612324       0.60396642       2.50227446       0.00000000
Si       0.59423477      -2.14988091       2.51051503       0.00000000
Si      -0.05006080      -1.79179413      -3.05609365       0.00000000
Si      -0.75323690      -3.46363685       1.06397801       0.00000000
Si      -3.48172200      -0.75327647       1.11911360       0.00000000
Si       3.21925101      -2.01780159      -0.44170929       0.00000000
