10
Lattice="16.2900001489832 0.0 0.0 0.0 16.2900001489832 0.0 0.0 0.0 29.32587717646782" Properties=species:S:1:pos:R:3:initial_magmoms:R:1 pbc="T T T"
Si       1.28897884      -1.34249638       1.43006467       0.00000000
Si      -0.91652428      -1.81881598      -1.22848836       0.00000000
Si       1.31175226       1.33069265      -1.48322076       0.00000000
Si      -1.39870828       1.36240928       1.43433452       0.00000000
Si       2.55467927      -2.69370302      -0.09795429       0.00000000
Si       2.54975969       2.72736468       0.00801476       0.00000000
Si      -0.36616662       2.67105015      -2.60643118       0.00000000
Si       2.61361649       0.02848632       2.81011699       0.00000000
H       -0.78408658       0.58532740      -3.72902576       0.00000000
Si      -2.89885440      -2.58016172      -0.11061134       0.00000000
