10
Lattice="16.2900001489832 0.0 0.0 0.0 16.2900001489832 0.0 0.0 0.0 29.32587717646782" Properties=species:S:1:pos:R:3:initial_magmoms:R:1 pbc="T T T"
Si      -2.27400257      -0.77657689       0.14988456       0.00000000
Si       1.08848152      -2.16964883       0.10099832       0.00000000
Si      -0.17067033       1.13876875       2.28888471       0.00000000
Si       0.83562814       0.37322019      -2.80161835       0.00000000
Si       3.18894672      -1.67122370      -0.89420465       0.00000000
Si      -3.78190272       1.01805985       0.38202820       0.00000000
Si      -1.05958306      -0.52593894       3.76329011       0.00000000
Si      -0.13639617      -3.82914372      -1.14068864       0.00000000
Si      -3.08545635      -1.77191219      -1.86829298       0.00000000
Si      -2.84021040      -1.43580061       2.49291950       0.00000000
