10
Lattice="16.2900001489832 0.0 0.0 0.0 16.2900001489832 0.0 0.0 0.0 29.32587717646782" Properties=species:S:1:pos:R:3:initial_magmoms:R:1 pbc="T T T"
Si      -0.98108155       1.13560849      -1.77958220       0.00000000
Si      -0.88800049       0.07767072       2.18064877       0.00000000
Si       2.18017217       0.59657239      -0.69951015       0.00000000
Si      -0.63801415      -2.17741916      -0.74942279       0.00000000
Si      -1.17450901      -1.01098999      -2.83337828       0.00000000
Si       0.97793758      -0.78913648       3.31789749       0.00000000
H       -3.37422918      -0.93151108      -0.67525765       0.00000000
Si       2.27791217      -2.12110463       1.86502315       0.00000000
Si      -2.88114717      -2.26188281      -0.09261112       0.00000000
Si       1.03990474      -3.51777666       0.37378763       0.00000000
