10
Lattice="16.2900001489832 0.0 0.0 0.0 16.2900001489832 0.0 0.0 0.0 29.32587717646782" Properties=species:S:1:pos:R:3:initial_magmoms:R:1 pbc="T T T"
H        0.91627993       0.76473406       0.94614078       0.00000000
Si      -1.23885451      -1.44680125       1.31101334       0.00000000
Si       1.46163655      -1.27434716      -1.26593947       0.00000000
Si      -1.32998077       1.52306614      -1.20356333       0.00000000
Si      -2.16526682       0.00420282       2.83396479       0.00000000
Si       0.00034209       0.89497261       3.52048358       0.00000000
Si       1.01286334       2.68630247       2.23797499       0.00000000
Si       0.05896980      -2.61969266      -2.59343395       0.00000000
Si      -2.65786013       0.12307095      -2.57844842       0.00000000
Si       2.78358636      -2.52998933       0.22982690       0.00000000
