10
Lattice="16.2900001489832 0.0 0.0 0.0 16.2900001489832 0.0 0.0 0.0 29.32587717646782" Properties=species:S:1:pos:R:3:initial_magmoms:R:1 pbc="T T T"
Si      -0.78890842       1.39589011       1.73937643       0.00000000
Si       1.12609513      -1.94124022       0.87411642       0.00000000
Si       1.01252125       1.79132987      -1.28250859       0.00000000
Si      -2.16560891      -0.89076979      -0.68651878       0.00000000
H        0.91593784      -0.13023855      -2.57434280       0.00000000
Si      -1.23919660      -2.34177386      -2.20947024       0.00000000
Si      -1.07448841       3.02744766      -1.64943396       0.00000000
Si      -0.00034209      -0.89497261      -3.52048358       0.00000000
Si      -2.72619669      -2.12075928       1.29558793       0.00000000
Si      -2.48617982       2.69226461       0.55009480       0.00000000
