10
Lattice="16.2900001489832 0.0 0.0 0.0 16.2900001489832 0.0 0.0 0.0 29.32587717646782" Properties=species:S:1:pos:R:3:initial_magmoms:R:1 pbc="T T T"
Si       2.04867929       0.10798641       1.17954543       0.00000000
Si      -0.67719160      -2.31376646      -0.02519093       0.00000000
Si      -1.11444778       1.63018918       1.38558904       0.00000000
Si       0.53465409       0.16969293      -2.41979543       0.00000000
H       -2.24903000       0.67727305      -1.30277277       0.00000000
H        0.89241508      -2.68310963       2.04313386       0.00000000
Si       3.03896469      -1.81341911       0.32355240       0.00000000
Si      -0.26163369       3.60090453       0.29968114       0.00000000
Si      -1.96022459      -2.26813817      -2.04067049       0.00000000
Si       1.48322080      -3.35767854      -0.46499111       0.00000000
