10
Lattice="16.2900001489832 0.0 0.0 0.0 16.2900001489832 0.0 0.0 0.0 29.32587717646782" Properties=species:S:1:pos:R:3:initial_magmoms:R:1 pbc="T T T"
Si       2.26533629      -0.72461179      -0.22698229       0.00000000
Si      -1.57902229      -1.51099525       0.98666914       0.00000000
Si      -0.10181250       1.84459817       1.58040085       0.00000000
Si      -0.69574591       0.29001087      -2.31167092       0.00000000
Si      -3.27106461       0.13147659       1.43385944       0.00000000
Si       2.46738116      -1.23219190      -2.51771453       0.00000000
H       -3.15552290      -1.98337757      -0.58229462       0.00000000
Si       3.66047706       1.20269071      -0.00073315       0.00000000
Si      -3.09087440       0.33461289      -2.33020487       0.00000000
Si       0.41870187      -1.34017831      -3.69725997       0.00000000
