10
Lattice="16.2900001489832 0.0 0.0 0.0 16.2900001489832 0.0 0.0 0.0 29.32587717646782" Properties=species:S:1:pos:R:3:initial_magmoms:R:1 pbc="T T T"
Si      -0.29976858       1.52937037      -1.71843775       0.00000000
Si       2.30413907      -0.20926134      -0.31519453       0.00000000
Si      -1.22464963       0.63097687       1.91524371       0.00000000
H       -0.08900856      -2.27638091       0.78913003       0.00000000
Si      -1.85235221      -2.26802414      -1.68963974       0.00000000
Si      -2.57917780       1.68583583      -1.45679227       0.00000000
Si       2.11071161      -2.35585982      -1.36899060       0.00000000
Si      -0.06416631       0.10819818      -3.57561623       0.00000000
Si      -3.17381168       1.46386828       0.81652040       0.00000000
Si       0.22351509      -2.19183581      -2.90871645       0.00000000
