10
Lattice="16.2900001489832 0.0 0.0 0.0 16.2900001489832 0.0 0.0 0.0 29.32587717646782" Properties=species:S:1:pos:R:3:initial_magmoms:R:1 pbc="T T T"
Si      -1.32499603      -1.34104168       1.38726355       0.00000000
Si      -1.86593807       0.86680720      -1.13724872       0.00000000
Si       1.29997459      -1.33196815      -1.45287434       0.00000000
Si       1.34299648       1.41910336       1.33321596       0.00000000
Si      -0.97793758       0.78913648      -3.31789749       0.00000000
Si       2.68868081      -2.64262898      -0.03368664       0.00000000
Si      -2.64849338      -2.69692355      -0.02655458       0.00000000
Si       2.69026094       0.03393207       2.70106285       0.00000000
Si       0.02122587      -2.66984957       2.73719233       0.00000000
Si      -2.71231760       0.04833243       2.71977276       0.00000000
