10
Lattice="16.2900001489832 0.0 0.0 0.0 16.2900001489832 0.0 0.0 0.0 29.32587717646782" Properties=species:S:1:pos:R:3:initial_magmoms:R:1 pbc="T T T"
Si      -0.85281409      -1.97071535       1.08590791       0.00000000
Si      -1.20088252       1.98189029       0.65684100       0.00000000
Si       2.26771463       0.78172453       0.33325927       0.00000000
Si      -0.47837214      -0.08192241      -2.40146676       0.00000000
Si      -2.77735217       0.50499000      -2.25712479       0.00000000
Si       0.26163369      -3.60090453      -0.29968114       0.00000000
Si       0.56334079       3.49135428       1.10315152       0.00000000
Si       2.19256886       2.99928225      -0.47068033       0.00000000
Si      -2.60294654       2.53747703      -1.13922235       0.00000000
Si       1.42337134       1.04402611      -3.37743195       0.00000000
