10
Lattice="16.2900001489832 0.0 0.0 0.0 16.2900001489832 0.0 0.0 0.0 29.32587717646782" Properties=species:S:1:pos:R:3:initial_magmoms:R:1 pbc="T T T"
Si      -1.36785502       1.32312268       1.37484698       0.00000000
Si      -1.78062734      -0.90986167      -1.27037061       0.00000000
Si       1.39660687      -1.39603672       1.34611348       0.00000000
Si       0.88891273       1.66470770      -1.47440540       0.00000000
Si       2.68214852       2.63928953      -0.16793757       0.00000000
Si       0.01645290       2.64888434       2.73767034       0.00000000
Si      -1.21441951      -0.25063794      -3.61340555       0.00000000
Si      -3.54103878       0.76167154      -1.23428189       0.00000000
Si      -0.78905503       3.51417657      -1.29847163       0.00000000
Si      -2.69498504      -0.06603966       2.74245046       0.00000000
