10
Lattice="16.2900001489832 0.0 0.0 0.0 16.2900001489832 0.0 0.0 0.0 29.32587717646782" Properties=species:S:1:pos:R:3:initial_magmoms:R:1 pbc="T T T"
Si       1.33625242       1.36203949      -1.37121936       0.00000000
Si      -1.26775297       1.36694278       1.43702663       0.00000000
Si       1.29384955      -1.35843940       1.46110318       0.00000000
Si      -1.36998901      -1.37567422      -1.38069162       0.00000000
Si       2.64520280      -2.68359833      -0.00014663       0.00000000
Si      -2.52664418      -0.07736121       2.80727824       0.00000000
Si      -2.71231760       2.65517228       0.02501497       0.00000000
Si       2.68007969       2.73702953       0.01700901       0.00000000
Si       2.68154579       0.02599884      -2.76100201       0.00000000
Si      -0.03277548       2.70703964      -2.76167651       0.00000000
