10
Lattice="16.2900001489832 0.0 0.0 0.0 16.2900001489832 0.0 0.0 0.0 29.32587717646782" Properties=species:S:1:pos:R:3:initial_magmoms:R:1 pbc="T T T"
Si      -1.49952709      -1.23103042      -1.22127615       0.00000000
Si      -0.92641231       1.45100407       1.52295145       0.00000000
Si       1.23885451       1.44680125      -1.31101334       0.00000000
H        2.15513444       2.21153531      -0.36487256       0.00000000
Si       1.23919660       2.34177386       2.20947024       0.00000000
Si      -0.02581965      -2.56565385      -2.49891665       0.00000000
Si       2.69382845      -2.42671644       0.27947561       0.00000000
Si      -2.66759178      -2.45419767       0.43041590       0.00000000
Si       2.70049106       0.17245409      -2.57695281       0.00000000
Si      -2.82094421       0.21533914      -2.52809589       0.00000000
