10
Lattice="16.2900001489832 0.0 0.0 0.0 16.2900001489832 0.0 0.0 0.0 29.32587717646782" Properties=species:S:1:pos:R:3:initial_magmoms:R:1 pbc="T T T"
Si       1.94789306      -1.13857327      -0.72478905       0.00000000
Si       0.21367593       2.36837054      -0.23105859       0.00000000
Si      -1.67088161      -0.43484526      -1.83339519       0.00000000
Si      -0.48687552      -0.24273729       2.47404830       0.00000000
H        0.84584197      -2.34002594       1.91691529       0.00000000
H        1.32107014      -2.55148643       1.33896090       0.00000000
Si      -3.61740630      -0.21243789      -0.27912370       0.00000000
H       -1.98281882      -3.10933749       0.05041118       0.00000000
Si      -3.24803055       1.79411546       0.93159514       0.00000000
Si      -2.01968309       1.49670892       2.90417094       0.00000000
