10
Lattice="16.2900001489832 0.0 0.0 0.0 16.2900001489832 0.0 0.0 0.0 29.32587717646782" Properties=species:S:1:pos:R:3:initial_magmoms:R:1 pbc="T T T"
Si       1.34505065      -1.32828661       1.40828727       0.00000000
Si       1.37502425       1.38362374      -1.33125992       0.00000000
Si      -1.35606606       1.37095012       1.38981197       0.00000000
Si      -1.41286266      -1.35485560      -1.38396732       0.00000000
Si       2.71015266      -2.67981254       0.01730227       0.00000000
Si      -2.74543355      -2.68623080       0.03785971       0.00000000
Si      -2.70881363       2.72561024      -0.00633439       0.00000000
Si       0.04457270       2.62883135      -2.80687061       0.00000000
Si      -0.05688794      -2.68281967       2.76965314       0.00000000
Si       2.67293001       0.07170858       2.78317237       0.00000000
