10
Lattice="16.2900001489832 0.0 0.0 0.0 16.2900001489832 0.0 0.0 0.0 29.32587717646782" Properties=species:S:1:pos:R:3:initial_magmoms:R:1 pbc="T T T"
Si      -1.38430792      -1.32576166      -1.36282337       0.00000000
Si      -1.35589816       1.34089507       1.38116084       0.00000000
Si       1.36902790      -1.34500015       1.39045714       0.00000000
Si       1.39999519       1.34161183      -1.37758895       0.00000000
Si      -0.01645290      -2.64888434      -2.73767034       0.00000000
Si       0.04676859       2.68624057       2.70865532       0.00000000
Si       2.71432127      -2.68104080       0.00067450       0.00000000
Si      -2.71143794      -2.71492400       0.00478012       0.00000000
Si       2.72463284       2.71259453       0.00246337       0.00000000
Si      -2.70762608       2.73213276       0.00516135       0.00000000
