10
Lattice="16.2900001489832 0.0 0.0 0.0 16.2900001489832 0.0 0.0 0.0 29.32587717646782" Properties=species:S:1:pos:R:3:initial_magmoms:R:1 pbc="T T T"
Si       0.42086844      -1.03115701       1.04274021       0.00000000
Si      -1.56960667       0.36934317      -2.06832479       0.00000000
Si       0.59080573      -0.67456891      -2.50812497       0.00000000
Si       2.14654961       0.86969053      -1.71958146       0.00000000
Si      -1.32828661      -0.96101227       2.59539878       0.00000000
Si       1.15626421       2.79109605      -0.86358843       0.00000000
Si       2.54588267      -0.41370084       1.85597611       0.00000000
Si       0.68598820      -3.17163045      -0.00175955       0.00000000
Si      -3.33246162      -0.24697269      -0.61443578       0.00000000
Si      -0.89241508       2.68310963      -2.04313386       0.00000000
