10
Lattice="16.2900001489832 0.0 0.0 0.0 16.2900001489832 0.0 0.0 0.0 29.32587717646782" Properties=species:S:1:pos:R:3:initial_magmoms:R:1 pbc="T T T"
Si       0.98534953       0.92337439       1.93600643       0.00000000
Si       1.60221925      -0.78615036      -1.56752679       0.00000000
Si      -1.33141429      -1.91279935       0.46144268       0.00000000
Si      -1.31375593       1.94001375      -0.54258738       0.00000000
H        3.13271364       1.40100534      -0.56572550       0.00000000
Si      -0.90795574       1.60618277       3.07209092       0.00000000
Si       2.79222006       1.14205135      -2.02169665       0.00000000
Si       0.16876440      -3.45552752       1.60902290       0.00000000
Si       3.08377848      -2.22467140      -0.41850959       0.00000000
Si       2.39114396      -0.59241339       2.97217765       0.00000000
