10
Lattice="16.2900001489832 0.0 0.0 0.0 16.2900001489832 0.0 0.0 0.0 29.32587717646782" Properties=species:S:1:pos:R:3:initial_magmoms:R:1 pbc="T T T"
Si      -1.89330527       0.68280839       1.13608448       0.00000000
Si       1.40579443      -1.51578777       1.03617122       0.00000000
Si      -0.98534953      -0.92337439      -1.93600643       0.00000000
Si       0.81161668       2.25031365      -0.04258117       0.00000000
H       -0.51469884       2.96296858      -0.21343373       0.00000000
H        2.14736411       0.47763095      -2.50173193       0.00000000
Si       2.95606488      -1.76680038      -0.65924572       0.00000000
Si      -2.29910546       1.01663936      -2.47859381       0.00000000
Si      -3.08311059       1.98895689      -0.41050363       0.00000000
Si       2.51434523      -0.63906974       2.85581257       0.00000000
