10
Lattice="16.2900001489832 0.0 0.0 0.0 16.2900001489832 0.0 0.0 0.0 29.32587717646782" Properties=species:S:1:pos:R:3:initial_magmoms:R:1 pbc="T T T"
Si       1.35624025       1.32568021       1.34028056       0.00000000
Si       1.38688174      -1.35094600      -1.34957687       0.00000000
Si      -1.34726446       1.38517129      -1.36784689       0.00000000
Si      -1.37919286      -1.32585940       1.45160159       0.00000000
Si       2.57370599      -0.08777052       2.79188216       0.00000000
Si      -2.66903507      -2.70378164       0.03612948       0.00000000
Si      -2.69026094      -0.03393207      -2.70106285       0.00000000
Si      -0.00158013      -2.67656105      -2.73474949       0.00000000
Si       0.05245380       2.74387134       2.67437337       0.00000000
Si      -2.69620679       2.72792342       0.02941385       0.00000000
