10
Lattice="16.2900001489832 0.0 0.0 0.0 16.2900001489832 0.0 0.0 0.0 29.32587717646782" Properties=species:S:1:pos:R:3:initial_magmoms:R:1 pbc="T T T"
Si       0.29598930      -1.34617466      -0.68760384       0.00000000
Si       0.41791995       2.08572275       1.12259458       0.00000000
Si       2.09583884       0.74536525       2.24580500       0.00000000
Si      -1.75153340      -2.46461186      -0.96109697       0.00000000
Si       1.32082579      -0.81724324      -2.77411068       0.00000000
Si      -1.82521307       2.00125910       1.77940625       0.00000000
Si      -0.11857491       3.25215192      -0.96136091       0.00000000
Si       2.96148945       0.51469884      -1.68676580       0.00000000
Si      -0.13243770      -2.40414338       2.50053740       0.00000000
Si      -3.42687846      -0.79198071      -0.90241589       0.00000000
