10
Lattice="16.2900001489832 0.0 0.0 0.0 16.2900001489832 0.0 0.0 0.0 29.32587717646782" Properties=species:S:1:pos:R:3:initial_magmoms:R:1 pbc="T T T"
Si       1.37267686       1.39323484      -1.25685167       0.00000000
Si       1.42961041      -1.29257893       1.33871750       0.00000000
Si      -1.37714032      -1.27578394      -1.42339303       0.00000000
Si      -1.28418958       1.47673738       1.35957699       0.00000000
Si      -0.19629450       2.40301937      -2.65880426       0.00000000
Si      -2.72126081      -2.61333956      -0.05869868       0.00000000
Si       0.05590728      -2.59838534       2.74566164       0.00000000
Si       2.66737349      -2.73101853      -0.16530997       0.00000000
Si      -2.67823892       0.13773195       2.72739162       0.00000000
Si      -2.81900082       0.10433745      -2.62323197       0.00000000
