10
Lattice="16.2900001489832 0.0 0.0 0.0 16.2900001489832 0.0 0.0 0.0 29.32587717646782" Properties=species:S:1:pos:R:3:initial_magmoms:R:1 pbc="T T T"
Si       0.24260697      -2.04090896       1.10230107       0.00000000
Si      -1.88849972       0.92818792       1.11235985       0.00000000
Si       2.00697689       0.81976168       0.98781285       0.00000000
Si      -0.23535792      -0.00576666      -2.40020574       0.00000000
H        2.09787509      -1.35156502      -1.02496873       0.00000000
Si       1.52871877      -1.53723844      -2.43686309       0.00000000
Si      -0.66362203       2.58768281       2.35404681       0.00000000
Si      -0.23219766      -1.28057320       3.38983679       0.00000000
H        2.57658932       1.74764009      -1.89841066       0.00000000
Si       1.43684317       3.08610795       1.35884384       0.00000000
