10
Lattice="16.2900001489832 0.0 0.0 0.0 16.2900001489832 0.0 0.0 0.0 29.32587717646782" Properties=species:S:1:pos:R:3:initial_magmoms:R:1 pbc="T T T"
Si      -0.56915632      -0.18567342      -1.41189436       0.00000000
Si      -2.09787509       1.35156502       1.02496873       0.00000000
Si       1.97607476       1.81284896       0.96798855       0.00000000
Si       1.49934790      -0.22874418      -2.43393050       0.00000000
Si      -1.85526812      -0.68934394       2.12726980       0.00000000
Si       0.07985358      -2.11682036       2.00993697       0.00000000
Si      -0.09089820       2.17132670       2.01278158       0.00000000
Si       2.19217790      -1.67080016       1.15177383       0.00000000
Si      -2.33323301       1.34579836      -1.37523701       0.00000000
Si      -1.51093009      -2.33261399      -1.38163005       0.00000000
