10
Lattice="16.2900001489832 0.0 0.0 0.0 16.2900001489832 0.0 0.0 0.0 29.32587717646782" Properties=species:S:1:pos:R:3:initial_magmoms:R:1 pbc="T T T"
H       -0.47522817       0.21146049       0.57795439       0.00000000
Si       1.20567178      -1.63593955       1.57940377       0.00000000
Si       0.62682292       1.41291316      -2.06374995       0.00000000
Si       2.53653221      -1.04076811      -0.22531071       0.00000000
H        2.97826815       0.37289439       0.12636520       0.00000000
Si      -1.80794567       2.30874914       1.13508740       0.00000000
Si      -1.32107014       2.55148643      -1.33896090       0.00000000
Si      -2.47024820      -1.77126059      -0.90262117       0.00000000
Si      -0.80847271      -2.02774664      -2.57217269       0.00000000
Si      -2.50849712      -1.84212209       1.45409429       0.00000000
