10
Lattice="16.2900001489832 0.0 0.0 0.0 16.2900001489832 0.0 0.0 0.0 29.32587717646782" Properties=species:S:1:pos:R:3:initial_magmoms:R:1 pbc="T T T"
Si      -2.15322851      -0.95379580       0.25381547       0.00000000
Si       0.80607808       1.12458016      -1.92788317       0.00000000
Si       1.65986957      -1.73038898       0.13730376       0.00000000
Si       0.32368230       2.12025755       1.11148007       0.00000000
H       -0.98106526      -0.67201138      -2.79663295       0.00000000
Si       2.03111867       2.50300739      -0.41965330       0.00000000
Si      -1.75513349      -3.07605702       1.12672953       0.00000000
Si       3.54923265      -0.59611627       1.18004397       0.00000000
Si      -0.90753220       2.46832598      -2.75868527       0.00000000
Si       0.56200501      -3.50026491       1.40787671       0.00000000
