10
Lattice="16.2900001489832 0.0 0.0 0.0 16.2900001489832 0.0 0.0 0.0 29.32587717646782" Properties=species:S:1:pos:R:3:initial_magmoms:R:1 pbc="T T T"
Si       1.44186049      -1.38012139       1.19983894       0.00000000
Si      -2.18017217      -0.59657239       0.69951015       0.00000000
Si       0.38483496       2.31915845       0.62710456       0.00000000
Si       0.47480463      -0.76033576      -2.28753572       0.00000000
Si      -3.16125372       0.53903611      -1.08007206       0.00000000
Si       2.62270631       2.29868192      -0.03557229       0.00000000
Si      -1.65630206       2.20876112      -2.27747695       0.00000000
Si       0.23219766       1.28057320      -3.38983679       0.00000000
Si       0.09774000      -2.71767701       2.56453330       0.00000000
Si       2.25808724      -3.06229197      -0.21639565       0.00000000
