10
Lattice="16.2900001489832 0.0 0.0 0.0 16.2900001489832 0.0 0.0 0.0 29.32587717646782" Properties=species:S:1:pos:R:3:initial_magmoms:R:1 pbc="T T T"
Si      -0.06514371      -2.20682261       0.91696153       0.00000000
Si      -1.65188747       1.24879141       1.26772834       0.00000000
Si       2.16780806       0.78750748       0.77883665       0.00000000
Si      -0.80754418      -0.31540698      -2.32211093       0.00000000
H        0.56127196       2.41663781      -0.46751313       0.00000000
H        2.74680354      -0.45341586       1.41875661       0.00000000
Si       0.08588088       3.48236220      -1.44230529       0.00000000
Si       1.61652187       2.18515691       2.67853764       0.00000000
Si      -2.84627028      -0.20960343       2.64674839       0.00000000
Si      -3.20494350       2.32531607      -0.20287642       0.00000000
