10
Lattice="16.2900001489832 0.0 0.0 0.0 16.2900001489832 0.0 0.0 0.0 29.32587717646782" Properties=species:S:1:pos:R:3:initial_magmoms:R:1 pbc="T T T"
Si      -1.33986880      -1.30372129       1.47434968       0.00000000
Si       1.37849239       1.35097858       1.44942268       0.00000000
Si      -1.38849445       1.36772470      -1.43193273       0.00000000
Si       0.97349041      -1.84204064      -1.23550800       0.00000000
Si      -2.67403610      -2.66760155       0.08211832       0.00000000
Si      -0.80607808      -3.54691947      -1.09742418       0.00000000
Si      -2.65419488       2.71893134       0.09608624       0.00000000
Si       2.70982523      -2.70923879       0.15139484       0.00000000
Si       0.01848915       2.83500167      -2.61153681       0.00000000
Si       2.74699902       2.74579113       0.11623311       0.00000000
