10
Lattice="16.2900001489832 0.0 0.0 0.0 16.2900001489832 0.0 0.0 0.0 29.32587717646782" Properties=species:S:1:pos:R:3:initial_magmoms:R:1 pbc="T T T"
Si       1.37037997       1.28776442       1.37092904       0.00000000
Si      -1.40698360      -1.46727697       1.17960408       0.00000000
Si       0.44020467       0.02027844      -2.35689142       0.00000000
Si      -0.97612939       1.92060324      -1.88034592       0.00000000
Si       2.73556343       0.74773789      -2.04155027       0.00000000
Si       2.49698009       2.50451829      -0.31566374       0.00000000
Si      -2.64991061       2.55711870      -0.20566238       0.00000000
Si      -0.02319696       2.64312990       2.70476084       0.00000000
Si      -2.67268403      -0.11607032       2.70762305       0.00000000
Si      -0.01848915      -2.83500167       2.61153681       0.00000000
