10
Lattice="16.2900001489832 0.0 0.0 0.0 16.2900001489832 0.0 0.0 0.0 29.32587717646782" Properties=species:S:1:pos:R:3:initial_magmoms:R:1 pbc="T T T"
Si      -1.33519357       1.34497735       1.37752443       0.00000000
Si      -1.32559876      -1.35724289      -1.38316086       0.00000000
Si       1.36620973      -1.36762859       1.34922496       0.00000000
Si       1.33257088       1.33137520      -1.42182703       0.00000000
Si       2.15612324      -0.60396642      -2.50227446       0.00000000
Si       0.38390643      -2.29860699      -2.70665529       0.00000000
Si      -2.68884371       2.70071261      -0.02099733       0.00000000
Si      -2.72222192      -0.04762382       2.68217405       0.00000000
Si       2.68854561       0.00341113       2.73179344       0.00000000
Si      -2.68372865       0.01973208      -2.74000175       0.00000000
