10
Lattice="16.2900001489832 0.0 0.0 0.0 16.2900001489832 0.0 0.0 0.0 29.32587717646782" Properties=species:S:1:pos:R:3:initial_magmoms:R:1 pbc="T T T"
Si      -1.33045155       1.24520761      -1.47561069       0.00000000
Si       1.81035659      -0.92997982      -1.17460402       0.00000000
Si       1.31986468       1.38652336       1.36944222       0.00000000
Si      -1.37502425      -1.38362374       1.33125992       0.00000000
Si      -2.69696949       2.67504608      -0.06244652       0.00000000
Si       3.53761788       0.81467920      -1.14061240       0.00000000
Si       2.65554695       2.72873792      -0.05548749       0.00000000
Si       2.69123834      -0.00379557       2.71640908       0.00000000
Si      -0.02997360      -2.71191035       2.73954720       0.00000000
Si      -2.73109031      -0.01267362       2.72107190       0.00000000
