10
Lattice="16.2900001489832 0.0 0.0 0.0 16.2900001489832 0.0 0.0 0.0 29.32587717646782" Properties=species:S:1:pos:R:3:initial_magmoms:R:1 pbc="T T T"
Si       1.35541912       1.33776739      -1.40429895       0.00000000
Si      -1.36914193      -1.37443618      -1.37872679       0.00000000
Si       1.32221044      -1.37425699       1.45289193       0.00000000
Si      -1.53596782       1.24447456       1.36421048       0.00000000
Si      -0.60266485      -2.25595325       2.59185035       0.00000000
Si      -2.45441432      -0.61292755       2.69088384       0.00000000
Si       2.65459725      -2.71600240      -0.02445778       0.00000000
Si       2.72158499       2.68141547       0.00873911       0.00000000
Si      -2.75343357       2.65792529      -0.08739111       0.00000000
Si      -0.03394836      -2.71941353      -2.75625122       0.00000000
