10
Lattice="16.2900001489832 0.0 0.0 0.0 16.2900001489832 0.0 0.0 0.0 29.32587717646782" Properties=species:S:1:pos:R:3:initial_magmoms:R:1 pbc="T T T"
Si       0.46281519       0.57085048       1.30403378       0.00000000
H        0.40122270      -2.03412092       0.53900962       0.00000000
Si       0.06072912      -2.29307490      -0.91696153       0.00000000
Si      -1.24217767      -0.67592098      -2.06064141       0.00000000
H       -2.19633185       1.15517278       0.57786641       0.00000000
Si      -2.69399135       0.14227686      -0.40827486       0.00000000
Si       0.53022321       2.82147690       0.74188604       0.00000000
Si       2.59608845      -0.32348682       1.63374462       0.00000000
Si      -0.93452473      -0.26143821       2.99816038       0.00000000
Si       2.17479647      -2.10979937      -1.82483203       0.00000000
