10
Lattice="16.2900001489832 0.0 0.0 0.0 16.2900001489832 0.0 0.0 0.0 29.32587717646782" Properties=species:S:1:pos:R:3:initial_magmoms:R:1 pbc="T T T"
Si       1.18096962      -0.84866014      -0.44194097       0.00000000
Si      -2.58323564       0.52198047      -0.04633489       0.00000000
Si      -1.48537108       2.29185641      -1.31690784       0.00000000
Si       2.00561504      -1.83492191       1.52169044       0.00000000
Si       2.47620546       0.59618143      -1.80280830       0.00000000
Si       0.26567361      -2.68521104      -1.57227758       0.00000000
H       -0.82917730      -2.79270876       1.31984043       0.00000000
Si      -2.22402485       0.81886573       2.25715411       0.00000000
Si       0.40399200       3.42612912      -0.27416763       0.00000000
Si      -1.42428358      -3.26340831      -0.02105598       0.00000000
