10
Lattice="16.2900001489832 0.0 0.0 0.0 16.2900001489832 0.0 0.0 0.0 29.32587717646782" Properties=species:S:1:pos:R:3:initial_magmoms:R:1 pbc="T T T"
Si      -2.11232432      -0.44602020       0.85816314       0.00000000
Si       0.90486064       1.86369005       1.08875252       0.00000000
Si       1.46391715      -1.67472605       0.80000993       0.00000000
Si       0.21181887      -0.31319154      -2.35445738       0.00000000
H       -2.19217790       1.67080016      -1.15177383       0.00000000
H       -0.41238135      -1.67094677      -2.65246694       0.00000000
Si      -0.21610314       3.48364911      -0.18378527       0.00000000
Si       2.55794868      -0.29405079      -2.43712702       0.00000000
Si      -2.85298176      -1.95919832      -0.77036147       0.00000000
Si       3.35661969      -1.41486796      -0.55710369       0.00000000
