10
Lattice="16.2900001489832 0.0 0.0 0.0 16.2900001489832 0.0 0.0 0.0 29.32587717646782" Properties=species:S:1:pos:R:3:initial_magmoms:R:1 pbc="T T T"
Si       0.35921079       0.29688525       2.30348900       0.00000000
Si      -2.31713849       0.42420789      -0.28114718       0.00000000
Si      -0.60867586      -2.30588210      -0.28234955       0.00000000
Si       1.09786456       1.76987594      -1.27057295       0.00000000
H        2.58323564      -0.52198047       0.04633489       0.00000000
H       -2.20024145      -0.13672197      -1.93272194       0.00000000
Si      -1.70929343       0.33995601       3.32552515       0.00000000
Si      -0.56200501       3.50026491      -1.40787671       0.00000000
Si      -2.71523351       2.54646911      -1.15406124       0.00000000
Si       1.15895206      -3.78538878       0.02527891       0.00000000
