10
Lattice="16.2900001489832 0.0 0.0 0.0 16.2900001489832 0.0 0.0 0.0 29.32587717646782" Properties=species:S:1:pos:R:3:initial_magmoms:R:1 pbc="T T T"
Si      -0.10552662      -2.01341144       1.21394469       0.00000000
Si       1.89158993       1.15945705       0.84804572       0.00000000
Si       1.48486609      -0.72920557      -1.81143011       0.00000000
Si      -1.51971040       1.37790595       1.43626416       0.00000000
H       -3.30685374      -0.41868558       0.56751438       0.00000000
Si       1.81578572       3.09527922      -0.55308604       0.00000000
Si      -1.85114675      -3.12448719       0.15038310       0.00000000
Si       3.32959621      -1.75910825      -0.56302752       0.00000000
Si       2.07014951      -3.06815637       0.98775420       0.00000000
Si      -0.66591892      -1.47706318       3.50145108       0.00000000
