10
Lattice="16.2900001489832 0.0 0.0 0.0 16.2900001489832 0.0 0.0 0.0 29.32587717646782" Properties=species:S:1:pos:R:3:initial_magmoms:R:1 pbc="T T T"
Si      -1.34832331       1.33859818       1.39884434       0.00000000
Si      -1.38232054      -1.39714444      -1.30788134       0.00000000
Si       1.37912379      -1.35873262       1.36544217       0.00000000
Si       1.38333834       1.34752510      -1.39817864       0.00000000
Si      -2.71365338       2.66307293      -0.00985349       0.00000000
Si       2.73081001       2.66128103       0.04835837       0.00000000
Si       0.04564458      -2.73794178       2.65774560       0.00000000
Si      -0.04685004      -2.73491184      -2.67406545       0.00000000
Si      -2.72339480      -0.03021795       2.73416883       0.00000000
Si       2.72202482      -2.75009412       0.03111476       0.00000000
