10
Lattice="16.2900001489832 0.0 0.0 0.0 16.2900001489832 0.0 0.0 0.0 29.32587717646782" Properties=species:S:1:pos:R:3:initial_magmoms:R:1 pbc="T T T"
Si      -1.37507149      -1.36881613       1.33532449       0.00000000
Si       1.34832331      -1.33859818      -1.39884434       0.00000000
Si      -1.36533007       1.32447475      -1.40869784       0.00000000
Si       1.36032904       1.35987292       1.42013493       0.00000000
Si       0.05163930      -2.75353131       2.59516417       0.00000000
Si       2.69498504       2.70890160      -0.00950158       0.00000000
Si      -2.72626184       2.69672807      -0.03381274       0.00000000
Si       2.72744711      -2.69733080      -0.03340217       0.00000000
Si      -0.03399723      -2.73574263      -2.70672568       0.00000000
Si       0.00317655       2.71928730      -2.74188740       0.00000000
