10
Lattice="16.2900001489832 0.0 0.0 0.0 16.2900001489832 0.0 0.0 0.0 29.32587717646782" Properties=species:S:1:pos:R:3:initial_magmoms:R:1 pbc="T T T"
Si       0.76965364       1.99115930       1.05368727       0.00000000
Si      -1.88507882      -0.86991859       1.18116686       0.00000000
Si       0.81871912       0.78232726      -2.14698002       0.00000000
Si       1.76041145      -1.67153321      -0.03608872       0.00000000
Si      -1.50464215       0.14077818      -2.13120270       0.00000000
Si       2.17318376       0.56145115       2.60912886       0.00000000
Si      -0.53582697      -2.20296188       2.61638995       0.00000000
Si       2.32661927      -1.01230948      -2.37912366       0.00000000
Si      -2.49965817       2.21716676      -1.56069708       0.00000000
Si      -1.00748764       3.64056091      -0.30683988       0.00000000
