10
Lattice="16.2900001489832 0.0 0.0 0.0 16.2900001489832 0.0 0.0 0.0 29.32587717646782" Properties=species:S:1:pos:R:3:initial_magmoms:R:1 pbc="T T T"
Si       1.22464963      -0.63097687      -1.91524371       0.00000000
Si      -1.24619967      -1.46764756       1.39479444       0.00000000
Si       1.35584929       1.37207413       1.40100273       0.00000000
Si      -1.94916205       0.83289142      -1.09872331       0.00000000
H        1.13564107      -2.90735778      -1.12611368       0.00000000
Si      -1.35452817       1.05485896      -3.37203599       0.00000000
Si      -2.61271761      -0.03780909       2.80795860       0.00000000
Si       0.92488105       0.89839351      -3.63368146       0.00000000
Si      -2.69472440      -2.80161939       0.00706754       0.00000000
Si      -3.64874826      -0.92119951      -1.05816563       0.00000000
