10
Lattice="16.2900001489832 0.0 0.0 0.0 16.2900001489832 0.0 0.0 0.0 29.32587717646782" Properties=species:S:1:pos:R:3:initial_magmoms:R:1 pbc="T T T"
Si      -1.34762284       1.32463765       1.37981185       0.00000000
Si      -1.31986468      -1.38652336      -1.36944222       0.00000000
Si       1.33568227       1.34221456      -1.42492971       0.00000000
Si       1.37137366      -1.39031893       1.34696686       0.00000000
Si       2.21775320      -0.57184417      -2.51005461       0.00000000
Si       0.49049190      -2.31650318      -2.54404624       0.00000000
Si      -2.69874966       2.66839976      -0.00932563       0.00000000
Si       0.03248226       2.65469987       2.74795199       0.00000000
Si       2.74574469       2.66778074      -0.04662814       0.00000000
Si      -0.02195892      -2.69843852       2.74499008       0.00000000
