10
Lattice="16.2900001489832 0.0 0.0 0.0 16.2900001489832 0.0 0.0 0.0 29.32587717646782" Properties=species:S:1:pos:R:3:initial_magmoms:R:1 pbc="T T T"
Si       1.22550811      -0.10458180       2.02779643       0.00000000
Si      -0.10013952      -2.09585513      -1.13784403       0.00000000
Si       1.25944670       1.30904812      -1.55078171       0.00000000
Si      -2.17567613       1.05474493       0.22619049       0.00000000
Si       0.36991658      -1.23209416      -3.44602518       0.00000000
Si      -0.58528342       2.33895080      -2.79918430       0.00000000
Si      -1.85543102      -3.20129454       0.05448748       0.00000000
Si      -0.06972772      -1.54942336       3.38866376       0.00000000
Si      -2.07014951       3.06815637      -0.98775420       0.00000000
Si       2.00165006       3.25669683      -0.48528462       0.00000000
