10
Lattice="16.2900001489832 0.0 0.0 0.0 16.2900001489832 0.0 0.0 0.0 29.32587717646782" Properties=species:S:1:pos:R:3:initial_magmoms:R:1 pbc="T T T"
Si      -1.32216157       1.31932711       1.45724096       0.00000000
Si      -1.35584929      -1.37207413      -1.40100273       0.00000000
Si       1.38394954      -1.35619138       1.41391491       0.00000000
Si       0.97407685       1.85075579      -1.19523771       0.00000000
Si      -2.67141341       2.65237040       0.02201787       0.00000000
Si      -0.78633460       3.52228899      -1.15914899       0.00000000
Si      -2.60204896      -2.83972170      -0.00620829       0.00000000
Si      -0.13119966      -2.00305100      -3.31624644       0.00000000
Si      -2.65048239      -0.03000618       2.82951899       0.00000000
Si       0.05971914       2.69457779       2.81758336       0.00000000
