10
Lattice="16.2900001489832 0.0 0.0 0.0 16.2900001489832 0.0 0.0 0.0 29.32587717646782" Properties=species:S:1:pos:R:3:initial_magmoms:R:1 pbc="T T T"
Si       1.49952709       1.23103042       1.22127615       0.00000000
Si      -1.32141712       1.44636957      -1.30681974       0.00000000
Si       1.47370744      -1.33462342      -1.27764049       0.00000000
Si      -1.16806469      -1.22316724       1.65169205       0.00000000
Si      -2.56177031      -2.59924871       0.16894638       0.00000000
Si       0.10140525      -2.64982916      -2.67220325       0.00000000
Si       0.46841895      -2.50908356       2.77073820       0.00000000
Si      -2.64375299       0.07532985      -2.68938822       0.00000000
Si       2.73838161       2.67783167      -0.08973718       0.00000000
Si      -2.65380392       2.78811498       0.17052998       0.00000000
