10
Lattice="16.2900001489832 0.0 0.0 0.0 16.2900001489832 0.0 0.0 0.0 29.32587717646782" Properties=species:S:1:pos:R:3:initial_magmoms:R:1 pbc="T T T"
Si      -1.27291690       1.45007065       1.32335953       0.00000000
Si      -1.38010510      -1.33006222      -1.36814015       0.00000000
Si       1.35319402       1.37049400      -1.39300849       0.00000000
Si       1.25203312      -1.39973455       1.48588354       0.00000000
Si      -2.53727341      -0.08987193       2.52704016       0.00000000
Si       2.66607029      -2.66906765       0.00542529       0.00000000
Si      -0.03248226      -2.65469987      -2.74795199       0.00000000
Si       2.56973123       0.04668714       2.83411142       0.00000000
Si      -2.71727139      -2.71024877       0.01671575       0.00000000
Si       2.72318303       2.74616823      -0.01231687       0.00000000
