10
Lattice="16.2900001489832 0.0 0.0 0.0 16.2900001489832 0.0 0.0 0.0 29.32587717646782" Properties=species:S:1:pos:R:3:initial_magmoms:R:1 pbc="T T T"
Si       0.88845824      -1.89268625      -1.10048287       0.00000000
Si      -1.22588767      -1.36832743       1.52358196       0.00000000
Si       1.52205616       1.29886687       1.42126104       0.00000000
Si      -1.63198108       0.69201550      -1.76401016       0.00000000
Si       1.90249283       2.30956364      -1.89110852       0.00000000
Si      -2.57065976      -2.81595459       0.21425457       0.00000000
Si      -2.56135817      -0.03056004       2.88976607       0.00000000
Si      -0.81112798      -3.64677717      -1.05992518       0.00000000
Si       0.20430071       2.71410950       2.79946876       0.00000000
Si       2.83762029      -2.72557766      -0.00175955       0.00000000
