10
Lattice="16.2900001489832 0.0 0.0 0.0 16.2900001489832 0.0 0.0 0.0 29.32587717646782" Properties=species:S:1:pos:R:3:initial_magmoms:R:1 pbc="T T T"
Si      -1.31775545       1.41524263       1.37820772       0.00000000
Si       1.34925184      -1.33304329       1.43522309       0.00000000
Si       1.88507882       0.86991859      -1.18116686       0.00000000
Si      -1.52205616      -1.29886687      -1.42126104       0.00000000
Si       0.38043666       1.01069677      -3.31236956       0.00000000
Si       2.67141341      -2.65237040      -0.02201787       0.00000000
Si      -2.74794384      -2.66719430       0.10232092       0.00000000
Si      -2.70109379       0.06771753       2.77638637       0.00000000
Si       0.02093102      -2.68237658       2.80750112       0.00000000
Si       2.65473245       2.86107789      -0.12747959       0.00000000
