10
Lattice="16.2900001489832 0.0 0.0 0.0 16.2900001489832 0.0 0.0 0.0 29.32587717646782" Properties=species:S:1:pos:R:3:initial_magmoms:R:1 pbc="T T T"
Si      -2.15511978       0.90430678       0.20789114       0.00000000
Si      -0.38625219      -2.12928221      -1.00599489       0.00000000
Si       1.31887099       0.97127497      -1.74647329       0.00000000
Si       0.67976542      -0.25663266       2.33530758       0.00000000
Si       1.92759572      -2.70469388      -1.09397252       0.00000000
Si       2.85167856      -0.76817125      -2.17659593       0.00000000
Si      -3.70397136      -0.72826075      -0.55839403       0.00000000
Si       1.29109654      -2.47171430       2.62299443       0.00000000
Si      -2.45243835       1.63856224       2.47360841       0.00000000
Si      -2.51643850       2.72292239      -1.26614475       0.00000000
