10
Lattice="16.2900001489832 0.0 0.0 0.0 16.2900001489832 0.0 0.0 0.0 29.32587717646782" Properties=species:S:1:pos:R:3:initial_magmoms:R:1 pbc="T T T"
Si       1.50790015      -1.79463674      -0.23214364       0.00000000
Si       0.31416894       1.90970930      -1.37884409       0.00000000
Si      -2.32336127      -0.64154908       0.01577732       0.00000000
Si      -0.81871912      -0.78232726       2.14698002       0.00000000
Si       0.94169233      -2.45386046       2.11089130       0.00000000
Si      -0.04906548       1.20883204       3.20066729       0.00000000
Si       1.93326464       1.97017778       2.08279028       0.00000000
Si      -2.60433608      -1.01747341      -2.34193523       0.00000000
Si       0.69644638      -2.78997204      -2.25032119       0.00000000
Si      -3.31837729       1.43483950       0.58628294       0.00000000
