10
Lattice="16.2900001489832 0.0 0.0 0.0 16.2900001489832 0.0 0.0 0.0 29.32587717646782" Properties=species:S:1:pos:R:3:initial_magmoms:R:1 pbc="T T T"
Si      -1.53643567      -1.55344699      -0.77220900       0.00000000
Si      -0.52340585       0.35953659       2.26756480       0.00000000
Si       2.08355618      -1.09470430      -0.18533954       0.00000000
Si      -0.27282655       1.63551601      -1.79415717       0.00000000
Si      -0.03399234      -2.01842876      -2.52334510       0.00000000
Si      -2.54312966       1.94020418      -1.41494425       0.00000000
Si       1.02219751       2.09450306       2.71320083       0.00000000
H       -1.81657937       2.76646394       1.50887503       0.00000000
Si       3.18647064       0.28473291      -1.73547609       0.00000000
Si       1.45591876      -0.36452133      -3.42150874       0.00000000
