10
Lattice="16.2900001489832 0.0 0.0 0.0 16.2900001489832 0.0 0.0 0.0 29.32587717646782" Properties=species:S:1:pos:R:3:initial_magmoms:R:1 pbc="T T T"
Si       1.97322890      -0.24048927      -1.20370995       0.00000000
Si      -1.08457192      -2.00495693      -0.55106256       0.00000000
Si      -0.81803820       2.00549450      -0.95092089       0.00000000
Si       0.28097481       0.37592433       2.35771255       0.00000000
H       -2.25495467       1.11184138       0.81484882       0.00000000
Si       1.06351384      -0.90953587      -3.31276839       0.00000000
Si       2.74890983       1.97907212      -1.21602682       0.00000000
Si       2.60433608       1.01747341       2.34193523       0.00000000
Si      -0.85434861       3.49432395       0.85326572       0.00000000
Si      -0.13842591      -3.60435801       0.87502552       0.00000000
