10
Lattice="16.2900001489832 0.0 0.0 0.0 16.2900001489832 0.0 0.0 0.0 29.32587717646782" Properties=species:S:1:pos:R:3:initial_magmoms:R:1 pbc="T T T"
Si      -2.27030311       0.30468816       0.37921292       0.00000000
Si       1.27285337       1.96109122       0.32824454       0.00000000
Si       0.27282655      -1.63551601       1.79415717       0.00000000
Si       0.09226167      -0.71412103      -2.74639772       0.00000000
Si       1.72874531      -2.00003735      -1.62735158       0.00000000
Si       3.32606128       0.90022939       0.82745895       0.00000000
Si      -1.26360912      -3.18896301       1.02194817       0.00000000
Si       3.45929719      -1.35078310       0.05868108       0.00000000
Si       0.23883421      -3.65394477      -0.72918794       0.00000000
Si      -3.19997342      -1.92484271       0.36059099       0.00000000
