10
Lattice="16.28999089631971 0.0 0.0 0.0 16.28999089631971 0.0 0.0 0.0 34.36671206372826" Properties=species:S:1:pos:R:3:initial_magmoms:R:1 pbc="T T T"
Si       1.35595695       1.35488817       1.38119893       0.00000000
Si      -1.35533666      -1.36680268       1.37264161       0.00000000
Si       1.40380556      -1.27914456      -1.44026847       0.00000000
Si      -1.45250651       1.33706691      -1.37761104       0.00000000
Si       2.68877705       2.70019782       0.03364159       0.00000000
Si       2.70681008      -2.70777814       0.00778406       0.00000000
Si      -2.70893792      -2.72076299      -0.01299406       0.00000000
Si      -2.73104345       2.70712107       0.02415981       0.00000000
Si      -0.00084336       2.70845685       2.73541998       0.00000000
Si       2.71495508      -0.00482184       2.73414841       0.00000000
