10
Lattice="16.28999089631971 0.0 0.0 0.0 16.28999089631971 0.0 0.0 0.0 34.36671206372826" Properties=species:S:1:pos:R:3:initial_magmoms:R:1 pbc="T T T"
Si       0.46850366       2.11134105       0.77108635       0.00000000
Si       0.97440590      -1.71411525       1.18517109       0.00000000
Si      -2.23784268      -0.38884230       0.59530052       0.00000000
Si       0.37719821      -0.25420545      -2.32422204       0.00000000
Si      -0.51628549      -3.45287727       0.54454086       0.00000000
Si      -3.09718905       1.72971360      -0.08395792       0.00000000
Si      -2.56693326      -2.54094678      -0.35136546       0.00000000
Si      -1.77276318      -0.55685736      -3.15314759       0.00000000
Si       2.48145896       2.71188168      -0.26678893       0.00000000
Si       1.74401066      -2.19755358      -2.41677164       0.00000000
