10
Lattice="16.28999089631971 0.0 0.0 0.0 16.28999089631971 0.0 0.0 0.0 34.36671206372826" Properties=species:S:1:pos:R:3:initial_magmoms:R:1 pbc="T T T"
Si       1.30095198      -1.36815835      -1.33487945       0.00000000
Si       1.37485971       1.31198064       1.35930732       0.00000000
Si      -1.34967537      -1.39435267       1.34889420       0.00000000
Si      -0.79022790       1.90788187      -1.37625012       0.00000000
Si      -0.57384783      -2.34293566      -2.56705633       0.00000000
Si       2.35173843       0.16151242      -2.74378625       0.00000000
Si      -2.66830200       2.67134530      -0.00309644       0.00000000
Si       0.01176138       2.67351187       2.70991986       0.00000000
Si       2.72880306       2.65880200      -0.01173280       0.00000000
Si      -2.70356985      -0.03991359       2.71177566       0.00000000
