10
Lattice="16.28999089631971 0.0 0.0 0.0 16.28999089631971 0.0 0.0 0.0 34.36671206372826" Properties=species:S:1:pos:R:3:initial_magmoms:R:1 pbc="T T T"
Si       1.35568638      -1.35405591       1.36157553       0.00000000
Si      -1.36692648      -1.34114325      -1.36502938       0.00000000
Si      -1.35878148       1.36181305       1.36133496       0.00000000
Si       1.39095423       1.35720298      -1.35329658       0.00000000
Si      -0.01089801       2.70867025      -2.57961153       0.00000000
Si       0.00545715      -2.62616533      -2.73827929       0.00000000
Si       2.70958086      -2.70849499      -0.00130594       0.00000000
Si      -2.71353119      -2.71527163       0.00158087       0.00000000
Si      -0.00174303      -2.71217653       2.71854591       0.00000000
Si       2.70817992       2.72349415       0.00859168       0.00000000
