10
Lattice="16.28999089631971 0.0 0.0 0.0 16.28999089631971 0.0 0.0 0.0 34.36671206372826" Properties=species:S:1:pos:R:3:initial_magmoms:R:1 pbc="T T T"
Si       1.47463596       1.32790541      -1.28603745       0.00000000
Si      -1.33400439      -1.39222226      -1.40095980       0.00000000
Si       1.39501044      -0.97451667       1.69397055       0.00000000
Si      -1.77108138       1.26872384       1.03419804       0.00000000
Si       0.31509747       0.18742134       3.56101196       0.00000000
Si      -3.35370375      -0.68602403       1.37803719       0.00000000
Si      -0.64384596       2.24377808       2.87512074       0.00000000
Si      -2.74049276      -2.60313941       0.04385195       0.00000000
Si      -0.00428427       2.69585816      -2.73865045       0.00000000
Si       2.68926723      -0.00990758      -2.77910009       0.00000000
