10
Lattice="16.28999089631971 0.0 0.0 0.0 16.28999089631971 0.0 0.0 0.0 34.36671206372826" Properties=species:S:1:pos:R:3:initial_magmoms:R:1 pbc="T T T"
Si      -0.74355705      -1.85393558      -1.20651283       0.00000000
Si       1.64753802      -0.68036814       1.52309916       0.00000000
Si       1.24154235       1.42904025      -1.40986078       0.00000000
Si      -1.40465412       1.23926175       1.49124120       0.00000000
Si       2.35991601       2.47314780       0.40793310       0.00000000
Si       1.89951174       1.42162830       2.52262118       0.00000000
Si      -2.44615527      -0.45919881       2.66544931       0.00000000
Si       0.13336623      -1.76052546       3.23370321       0.00000000
Si       1.21316517      -3.16741850      -1.44481175       0.00000000
Si      -0.32521356       2.85040791      -2.43467671       0.00000000
