10
Lattice="16.28999089631971 0.0 0.0 0.0 16.28999089631971 0.0 0.0 0.0 34.36671206372826" Properties=species:S:1:pos:R:3:initial_magmoms:R:1 pbc="T T T"
Si       1.04150115       1.69846056      -1.17420811       0.00000000
Si      -1.37484342       0.70141482       1.73342356       0.00000000
Si      -1.14725583      -1.21740383      -1.70809528       0.00000000
Si       2.57952150      -1.30132665       0.56825390       0.00000000
Si       0.85199958       1.73957652       2.23005719       0.00000000
Si      -2.28595941      -1.69858111       1.49271897       0.00000000
Si       1.53538137      -0.69016657       2.80253820       0.00000000
Si       2.26505934       2.75072940       0.65417073       0.00000000
Si       2.44615527       0.45919881      -2.66544931       0.00000000
Si      -0.67557888       2.95943688      -2.07643790       0.00000000
