10
Lattice="16.28999089631971 0.0 0.0 0.0 16.28999089631971 0.0 0.0 0.0 34.36671206372826" Properties=species:S:1:pos:R:3:initial_magmoms:R:1 pbc="T T T"
Si      -0.34380045       1.60427178      -1.78641706       0.00000000
Si      -1.07111637      -2.04071346       0.89669675       0.00000000
Si       2.16912753      -0.25124067       1.21273321       0.00000000
Si      -1.47659076       1.55351214       1.28837439       0.00000000
Si       0.18207333       1.78873974       3.03492604       0.00000000
Si       2.61260649      -1.61880246      -1.74077804       0.00000000
Si      -2.09334645       0.36479826      -2.87491454       0.00000000
Si       0.39144870       3.54388854      -0.39332724       0.00000000
Si       2.64995946      -2.36967372       0.51089583       0.00000000
Si       1.22950404      -0.30568185       3.42289207       0.00000000
