10
Lattice="16.28999089631971 0.0 0.0 0.0 16.28999089631971 0.0 0.0 0.0 34.36671206372826" Properties=species:S:1:pos:R:3:initial_magmoms:R:1 pbc="T T T"
Si      -0.40506714       1.83662161      -1.39082161       0.00000000
Si       0.47895858       1.15595469       1.99138024       0.00000000
Si       1.81796400      -1.42122105      -0.65399890       0.00000000
Si      -2.27286225      -0.68642802       0.38738179       0.00000000
Si      -2.05291467       2.86111437      -0.03546647       0.00000000
Si       0.94970700      -3.45981681      -0.00714828       0.00000000
Si       1.75518234       2.34648069      -2.13139031       0.00000000
Si      -1.47776364       2.46943761       2.22967916       0.00000000
Si      -3.64925322       1.15790949      -0.21616674       0.00000000
Si       2.62229904       2.13550401       1.82875687       0.00000000
