10
Lattice="16.28999089631971 0.0 0.0 0.0 16.28999089631971 0.0 0.0 0.0 34.36671206372826" Properties=species:S:1:pos:R:3:initial_magmoms:R:1 pbc="T T T"
Si       1.73561805      -0.61071210       1.47261443       0.00000000
Si      -1.87442514      -1.06166817       0.98158258       0.00000000
Si       0.25865262       2.31792039      -0.49237216       0.00000000
Si       0.74497428      -0.71760708      -2.18060347       0.00000000
Si       3.49308099       0.51958584       0.32500618       0.00000000
Si       2.96950410       0.18780741      -1.95416107       0.00000000
Si       1.05770970      -2.79112860       2.09743598       0.00000000
Si       2.46264075       2.65911444       0.41941159       0.00000000
Si      -3.38501313       0.65453220       1.54540317       0.00000000
Si      -2.91389004       0.14382441      -2.55056133       0.00000000
