10
Lattice="16.28999089631971 0.0 0.0 0.0 16.28999089631971 0.0 0.0 0.0 34.36671206372826" Properties=species:S:1:pos:R:3:initial_magmoms:R:1 pbc="T T T"
Si       1.85036481      -1.29979539       0.63949614       0.00000000
Si       0.06258618      -0.45400230      -2.31628332       0.00000000
Si      -2.13860007      -0.48065274       0.92590847       0.00000000
Si       0.81091620       2.13436467       1.06688081       0.00000000
Si       0.04072500      -2.81675277      -2.31092211       0.00000000
Si      -0.41967927      -3.86827227      -0.19623404       0.00000000
Si       2.15000307       0.10360440      -3.27525259       0.00000000
Si       3.59186355      -0.13535361       1.63341637       0.00000000
Si      -2.50028694      -2.99836998       0.60076483       0.00000000
Si      -1.48489866       0.81177957      -3.57613332       0.00000000
