10
Lattice="16.28999089631971 0.0 0.0 0.0 16.28999089631971 0.0 0.0 0.0 34.36671206372826" Properties=species:S:1:pos:R:3:initial_magmoms:R:1 pbc="T T T"
Si      -1.13648814      -2.04519321       0.19619967       0.00000000
Si      -0.93348216       1.37358909       1.70943558       0.00000000
Si       2.29900770      -0.38781603       0.51443560       0.00000000
Si      -0.28686690       0.35992755      -2.38986249       0.00000000
Si       0.41099670      -3.31097508       1.45604967       0.00000000
Si      -3.28634460      -1.35941679       0.89391305       0.00000000
Si      -3.25295010       0.94850154       1.49880188       0.00000000
Si       2.49841359      -2.75336838       0.49708040       0.00000000
Si       3.54527415       0.67553001      -1.11052655       0.00000000
Si       1.19988882      -1.11957912      -3.49550897       0.00000000
