10
Lattice="16.28999089631971 0.0 0.0 0.0 16.28999089631971 0.0 0.0 0.0 34.36671206372826" Properties=species:S:1:pos:R:3:initial_magmoms:R:1 pbc="T T T"
Si       1.37406150      -1.35816246      -1.24043967       0.00000000
Si      -1.33282011      -1.34530965       1.34755734       0.00000000
Si      -1.35270042       1.26944712      -1.44741331       0.00000000
Si       1.38790800       1.36800162       1.34278036       0.00000000
Si       2.29426731       0.28175184      -2.59876960       0.00000000
Si       0.42674913       1.90273716      -2.91754101       0.00000000
Si      -2.68877705      -2.70019782      -0.03364159       0.00000000
Si      -2.68962041       0.00825903       2.70177838       0.00000000
Si      -2.66786936       2.72440476      -0.02201876       0.00000000
Si       0.02617803      -2.70501966       2.70050681       0.00000000
