10
Lattice="16.28999089631971 0.0 0.0 0.0 16.28999089631971 0.0 0.0 0.0 34.36671206372826" Properties=species:S:1:pos:R:3:initial_magmoms:R:1 pbc="T T T"
Si      -0.62073045      -2.19084210       0.35827317       0.00000000
Si       2.23977726       0.14335200       0.65217746       0.00000000
Si       0.13297527       0.31581423      -2.34078680       0.00000000
Si      -1.17618687       1.71180600       1.17871015       0.00000000
Si      -1.11340521      -2.05589574       2.65610156       0.00000000
Si       1.80911853       1.92938175      -2.36821145       0.00000000
Si      -2.29180752      -2.51791272      -1.24328524       0.00000000
Si       2.20253832       2.00710949       2.10393129       0.00000000
Si      -3.33923823      -0.42349113      -1.63125127       0.00000000
Si      -1.99601370       0.97183030      -3.03155810       0.00000000
