10
Lattice="16.28999089631971 0.0 0.0 0.0 16.28999089631971 0.0 0.0 0.0 34.36671206372826" Properties=species:S:1:pos:R:3:initial_magmoms:R:1 pbc="T T T"
Si       0.76745448      -1.99581822       0.96707982       0.00000000
Si       0.04054581       1.47090555       1.83824209       0.00000000
Si      -2.19642957      -0.27282492      -0.95910674       0.00000000
Si       1.78843023       0.10601532      -1.66936397       0.00000000
Si       0.69628347      -3.42665037      -0.81682847       0.00000000
Si      -1.70375481      -0.40777128      -3.25693512       0.00000000
Si       1.15675290       1.92642282      -2.96303084       0.00000000
Si       1.77596838      -2.17593675      -2.47282378       0.00000000
Si       2.24697744       2.31881634       1.92659895       0.00000000
Si       2.98755342      -1.65079602       1.66049735       0.00000000
