10
Lattice="16.28999089631971 0.0 0.0 0.0 16.28999089631971 0.0 0.0 0.0 34.36671206372826" Properties=species:S:1:pos:R:3:initial_magmoms:R:1 pbc="T T T"
Si      -0.47895858      -1.15595469      -1.99138024       0.00000000
Si       0.21546783      -1.28137140       1.96797650       0.00000000
Si       2.14334046       0.97954932      -0.16262337       0.00000000
Si      -1.95672222       1.31348292       0.23829891       0.00000000
Si      -0.88402572       0.68066692      -3.38220186       0.00000000
Si      -3.22820559      -0.13193271       1.65101214       0.00000000
Si       2.59489926      -1.11941622       2.30487357       0.00000000
Si      -2.53187325       1.70515968      -2.02684671       0.00000000
Si       3.57598080      -0.83344527       0.15196969       0.00000000
Si      -2.75182083      -1.84238271      -1.60399845       0.00000000
