10
Lattice="16.28999089631971 0.0 0.0 0.0 16.28999089631971 0.0 0.0 0.0 34.36671206372826" Properties=species:S:1:pos:R:3:initial_magmoms:R:1 pbc="T T T"
Si       2.34398439       0.36971784       0.00793871       0.00000000
Si      -1.63374039       1.52624987      -0.88868930       0.00000000
Si      -1.11667950      -2.21991975       0.04505478       0.00000000
Si       1.45639116       0.71673461       2.17517352       0.00000000
Si      -2.20216365      -0.46473741      -2.19160082       0.00000000
Si      -1.46919510      -1.78771347       2.35190345       0.00000000
Si      -2.67788052       2.13740994       1.34559500       0.00000000
Si      -0.11956860       2.60640719      -2.59929335       0.00000000
Si       0.40560471      -0.81293616       3.58408032       0.00000000
Si      -0.33847362      -1.16201457      -3.59922777       0.00000000
