10
Lattice="16.28999089631971 0.0 0.0 0.0 16.28999089631971 0.0 0.0 0.0 34.36671206372826" Properties=species:S:1:pos:R:3:initial_magmoms:R:1 pbc="T T T"
Si      -1.20485727       1.34939074      -1.61448030       0.00000000
Si       1.51379712       1.43037973       1.34875674       0.00000000
Si      -0.75132738      -1.92378243       1.38707564       0.00000000
Si       1.48102164      -1.32491316      -1.62468722       0.00000000
Si      -2.47938687       2.73850420      -0.20609729       0.00000000
Si      -2.51773353      -2.77244256      -0.00976015       0.00000000
Si       2.79564093      -2.58372291      -0.18932632       0.00000000
Si       2.81302236       2.64353350      -0.26964137       0.00000000
Si      -2.56173282      -0.00465195      -2.98959632       0.00000000
Si       1.26294741      -3.52316721       1.40398407       0.00000000
