10
Lattice="16.28999089631971 0.0 0.0 0.0 16.28999089631971 0.0 0.0 0.0 34.36671206372826" Properties=species:S:1:pos:R:3:initial_magmoms:R:1 pbc="T T T"
Si       1.59678882      -0.19328085       1.69812893       0.00000000
Si      -1.08273114      -2.03299919      -0.57753292       0.00000000
Si      -1.84352301       0.94742640       1.16726603       0.00000000
Si       0.38079504       1.66777020      -1.71538102       0.00000000
Si      -2.81250108      -0.74228317      -1.67640915       0.00000000
Si       1.39934262       2.03437665       2.36577141       0.00000000
Si      -1.43988939       0.55342017      -3.29858760       0.00000000
Si      -0.84626550       2.69223201       2.31264045       0.00000000
Si       3.58120079      -0.67898838       0.58206933       0.00000000
Si      -2.38184235      -2.52831293       1.34397976       0.00000000
