10
Lattice="16.28999089631971 0.0 0.0 0.0 16.28999089631971 0.0 0.0 0.0 34.36671206372826" Properties=species:S:1:pos:R:3:initial_magmoms:R:1 pbc="T T T"
Si      -1.23124707       1.98933480       0.46230127       0.00000000
Si      -0.38079504      -1.66777020       1.71538102       0.00000000
Si       2.09462426       1.23857757       0.22578942       0.00000000
Si      -1.82068443      -1.11435003      -1.58320658       0.00000000
Si      -2.22431805      -0.72034380       2.88264705       0.00000000
Si      -2.82494664       0.86527593      -2.35724846       0.00000000
Si      -0.48707100       2.76887646       2.57293407       0.00000000
Si       2.39685263       1.50755805       2.58224745       0.00000000
Si      -0.31340331       3.73026339      -0.92195630       0.00000000
Si       1.09257749      -2.73818284      -2.52550798       0.00000000
