10
Lattice="16.28999089631971 0.0 0.0 0.0 16.28999089631971 0.0 0.0 0.0 34.36671206372826" Properties=species:S:1:pos:R:3:initial_magmoms:R:1 pbc="T T T"
Si      -1.56123360      -0.20273068      -1.74290878       0.00000000
Si       1.97909558      -0.98591478      -0.94573808       0.00000000
Si      -0.43377012      -1.67409465       1.69496719       0.00000000
Si      -0.47693862       2.42418332       0.00955395       0.00000000
Si       1.16927991       3.24163181       1.41037628       0.00000000
Si       1.31269707      -3.23767401      -1.31961375       0.00000000
Si       1.01300994      -3.46648335       0.97044776       0.00000000
Si       2.45463651       0.26854391      -2.84051344       0.00000000
Si      -0.98567532       1.40925116      -3.37137634       0.00000000
Si      -3.70923300       0.21026806      -0.81057372       0.00000000
