10
Lattice="16.28999089631971 0.0 0.0 0.0 16.28999089631971 0.0 0.0 0.0 34.36671206372826" Properties=species:S:1:pos:R:3:initial_magmoms:R:1 pbc="T T T"
Si      -1.84710681      -1.02499938       1.01288792       0.00000000
Si       1.14231996       1.85103270       0.96714237       0.00000000
Si      -0.76155750       0.26301834      -2.24190413       0.00000000
Si       1.78173504      -1.74636945      -0.08084567       0.00000000
Si       1.02731256      -1.42262199      -2.29218266       0.00000000
Si      -0.37489806      -2.23518348       2.44872308       0.00000000
Si       2.37705309       0.48229803       2.43618610       0.00000000
Si       0.90363888      -3.60523764       1.04695223       0.00000000
Si       3.69222202      -0.97265961       1.01079155       0.00000000
Si      -3.08817675       0.47444625       2.41858346       0.00000000
