10
Lattice="16.28999089631971 0.0 0.0 0.0 16.28999089631971 0.0 0.0 0.0 34.36671206372826" Properties=species:S:1:pos:R:3:initial_magmoms:R:1 pbc="T T T"
Si       1.35787587      -1.35464382       1.35270891       0.00000000
Si      -1.35754344      -1.35619137      -1.35800139       0.00000000
Si       1.35761153       1.35891180      -1.35810449       0.00000000
Si      -1.36143675       1.36370106       1.35817322       0.00000000
Si      -2.69876430       0.00750969       2.70174058       0.00000000
Si       2.69394802       0.00814500       2.71318470       0.00000000
Si       2.71354326      -2.71308321      -0.00079043       0.00000000
Si      -0.00034209      -2.71282257      -2.71531544       0.00000000
Si      -2.71451673       0.00074934      -2.71479994       0.00000000
Si      -2.71520091       2.71459818      -0.00226820       0.00000000
