10
Lattice="16.28999089631971 0.0 0.0 0.0 16.28999089631971 0.0 0.0 0.0 34.36671206372826" Properties=species:S:1:pos:R:3:initial_magmoms:R:1 pbc="T T T"
Si      -1.34991972       1.30401450      -1.39951640       0.00000000
Si      -1.92393045      -0.83559555       1.14637105       0.00000000
Si       1.33955928      -1.42415325      -1.38174880       0.00000000
Si       1.75669731       0.57215367       1.72892152       0.00000000
Si      -0.47897487      -1.20151782       2.92869847       0.00000000
Si       2.47344102       2.38891221       0.08529823       0.00000000
Si      -2.80743489       2.51222751      -0.05155010       0.00000000
Si      -2.64085335      -2.75012667       0.04203051       0.00000000
Si      -0.01259217       2.66020587      -2.74308376       0.00000000
Si       2.70672045      -0.05813901      -2.74854807       0.00000000
