10
Lattice="16.28999089631971 0.0 0.0 0.0 16.28999089631971 0.0 0.0 0.0 34.36671206372826" Properties=species:S:1:pos:R:3:initial_magmoms:R:1 pbc="T T T"
Si       1.23473313      -1.36873467       1.46904373       0.00000000
Si      -1.14231996      -1.85103270      -0.96714237       0.00000000
Si       1.39915040       1.20435228      -1.63611557       0.00000000
Si      -1.50198687       1.33315731       1.45300478       0.00000000
Si      -0.50450130       2.19916629      -2.70251524       0.00000000
Si       2.50823387       2.67281433      -0.07639724       0.00000000
Si       0.63941508      -3.59740215      -1.04798804       0.00000000
Si       2.54990206      -2.82369231       0.04364919       0.00000000
Si       2.57174207      -0.01342296       2.83322426       0.00000000
Si      -0.14385699       2.70682785       2.83401469       0.00000000
