10
Lattice="16.28999089631971 0.0 0.0 0.0 16.28999089631971 0.0 0.0 0.0 34.36671206372826" Properties=species:S:1:pos:R:3:initial_magmoms:R:1 pbc="T T T"
Si      -1.96840215       0.92849742      -0.78840718       0.00000000
Si      -0.26283915       0.34342578       2.36126937       0.00000000
Si       0.09301590      -2.25816867      -1.03158617       0.00000000
Si       2.09071466       1.43562141      -0.00714828       0.00000000
Si       3.02043383      -0.54791415       0.92133770       0.00000000
Si       0.90418152       2.72231964       1.70593017       0.00000000
Si       2.39200961      -2.39085072      -0.51464180       0.00000000
Si       1.98726175      -0.31379427       3.06527186       0.00000000
Si      -1.66988790      -1.58105853       2.89787151       0.00000000
Si       0.92925085       3.25047402      -1.76473165       0.00000000
