10
Lattice="16.28999089631971 0.0 0.0 0.0 16.28999089631971 0.0 0.0 0.0 34.36671206372826" Properties=species:S:1:pos:R:3:initial_magmoms:R:1 pbc="T T T"
Si      -0.89023221      -1.40136354      -1.69342068       0.00000000
Si      -1.24649451      -0.72803268       1.98423196       0.00000000
Si      -1.50591276       1.57618782       1.26995382       0.00000000
Si       2.30247488      -0.89505405       0.74146223       0.00000000
Si       0.54237555      -2.41367301       1.93395344       0.00000000
Si      -1.68836076       2.71116099      -1.01251264       0.00000000
Si       2.67425992      -1.67027886      -1.48134358       0.00000000
Si       2.54128628       2.56604967      -0.59935579       0.00000000
Si      -2.98799325      -1.89247446       0.99031173       0.00000000
Si      -1.71457137      -3.26304990      -0.49704603       0.00000000
