10
Lattice="16.28999089631971 0.0 0.0 0.0 16.28999089631971 0.0 0.0 0.0 34.36671206372826" Properties=species:S:1:pos:R:3:initial_magmoms:R:1 pbc="T T T"
Si      -1.35620766      -1.35747828      -1.35717658       0.00000000
Si       1.35735588      -1.35749457       1.35745152       0.00000000
Si      -1.35751086       1.35756826       1.35762335       0.00000000
Si       1.35745424       1.35778721      -1.35803575       0.00000000
Si      -0.00008145      -2.71086777      -2.71545290       0.00000000
Si      -2.71230129       0.00179190       2.71473120       0.00000000
Si       0.00006516       2.71481551       2.71335653       0.00000000
Si       2.71399938      -2.71428867      -0.00041240       0.00000000
Si       2.71433658      -0.00016290       2.71476557       0.00000000
Si      -2.71500543      -2.71440270      -0.00013747       0.00000000
