10
Lattice="16.28999089631971 0.0 0.0 0.0 16.28999089631971 0.0 0.0 0.0 34.36671206372826" Properties=species:S:1:pos:R:3:initial_magmoms:R:1 pbc="T T T"
Si      -1.35628911      -1.35589815      -1.35758899       0.00000000
Si      -1.35811359       1.35936792       1.35573318       0.00000000
Si       1.35913149       1.35824391      -1.35745152       0.00000000
Si       1.36131930      -1.35519768       1.35975409       0.00000000
Si      -2.71052568       2.71753038      -0.00017183       0.00000000
Si      -2.71322982       0.00133578      -2.71504050       0.00000000
Si       0.00154755      -2.71381626      -2.71504050       0.00000000
Si      -2.71371852      -2.71588509      -0.00192454       0.00000000
Si       0.00177561       2.71573848      -2.71490304       0.00000000
Si       2.71680940      -2.71414206      -0.00065297       0.00000000
