10
Lattice="16.28999089631971 0.0 0.0 0.0 16.28999089631971 0.0 0.0 0.0 34.36671206372826" Properties=species:S:1:pos:R:3:initial_magmoms:R:1 pbc="T T T"
Si       1.31461929      -1.25880975       1.43536090       0.00000000
Si       1.38428358       1.32414894      -1.36652434       0.00000000
Si      -1.33030656      -1.39009086      -1.36930804       0.00000000
Si      -1.48102164       1.32491316       1.62468722       0.00000000
Si      -0.21807423      -2.19825405       3.02867129       0.00000000
Si      -2.68587891       2.67430391       0.01020692       0.00000000
Si      -2.23234902      -0.59886927       3.01176286       0.00000000
Si       0.02964780       2.68109521      -2.72658773       0.00000000
Si      -2.68271865      -0.03192840      -2.72521306       0.00000000
Si      -2.68226253      -2.74449033       0.01972650       0.00000000
