10
Lattice="16.28999089631971 0.0 0.0 0.0 16.28999089631971 0.0 0.0 0.0 34.36671206372826" Properties=species:S:1:pos:R:3:initial_magmoms:R:1 pbc="T T T"
Si      -1.31461929       1.25880975      -1.43536090       0.00000000
Si       1.41758579       1.35026181       1.36745224       0.00000000
Si      -1.53269352      -0.93944430       1.59331040       0.00000000
Si       1.41024226      -1.48897116      -1.42154547       0.00000000
Si      -2.54280384      -2.71725345       0.12165823       0.00000000
Si       0.23462896      -1.04552478       3.57204368       0.00000000
Si       2.49302879      -0.13742244       2.80659348       0.00000000
Si      -2.79564093       2.58372291       0.18932632       0.00000000
Si       0.06966429       2.58295869      -2.80188523       0.00000000
Si       2.82407417       2.56117896      -0.07735951       0.00000000
