10
Lattice="16.28999089631971 0.0 0.0 0.0 16.28999089631971 0.0 0.0 0.0 34.36671206372826" Properties=species:S:1:pos:R:3:initial_magmoms:R:1 pbc="T T T"
Si      -0.22577940      -0.32770593       2.28263829       0.00000000
Si       2.23784268       0.38884230      -0.59530052       0.00000000
Si      -0.32909058      -2.15210448      -0.94666598       0.00000000
Si      -0.85934637       2.11855590      -0.67925844       0.00000000
Si       1.72155719      -3.06403497      -0.05075966       0.00000000
Si       3.21224858      -1.32527295       0.58987058       0.00000000
Si      -0.98170056       1.62437364      -3.02392868       0.00000000
Si      -2.65092057      -0.13600521       2.48608934       0.00000000
Si       2.70634634       2.50018335       0.17578583       0.00000000
Si       0.46507950      -0.16801506      -3.74844811       0.00000000
