10
Lattice="16.28999089631971 0.0 0.0 0.0 16.28999089631971 0.0 0.0 0.0 34.36671206372826" Properties=species:S:1:pos:R:3:initial_magmoms:R:1 pbc="T T T"
Si      -1.21526658       1.99627434      -0.17520160       0.00000000
Si      -1.03053798      -1.05306705      -1.89694047       0.00000000
Si       2.42514117      -0.19170072      -0.20345105       0.00000000
Si       0.83862549      -0.94815945       2.09663939       0.00000000
Si       1.98407313      -2.43493146       0.55327001       0.00000000
Si       2.65092057       0.13600521      -2.48608934       0.00000000
Si      -0.49220235       2.56403853      -2.53619603       0.00000000
Si      -2.10285981       2.34329111       1.99203321       0.00000000
Si      -1.51829316       0.62649711      -3.44547101       0.00000000
Si      -3.55925097       1.62655650      -0.18314031       0.00000000
