10
Lattice="16.28999089631971 0.0 0.0 0.0 16.28999089631971 0.0 0.0 0.0 34.36671206372826" Properties=species:S:1:pos:R:3:initial_magmoms:R:1 pbc="T T T"
Si      -2.29899371       0.13268205      -0.51694437       0.00000000
Si       0.62842422       1.84293657       1.43597950       0.00000000
Si       0.10903386      -2.35900377       0.63080135       0.00000000
Si       1.66694430       1.07320149      -1.70840458       0.00000000
Si      -2.39200961       2.39085072       0.51464180       0.00000000
Si       3.60986889       0.18875223      -0.35744837       0.00000000
Si       0.41126223      -2.09002329       2.98725938       0.00000000
Si      -3.21683747      -1.60824654       0.86731320       0.00000000
Si       2.98566867       1.65437982       1.53330608       0.00000000
Si      -0.30129495       3.82647213       0.50749352       0.00000000
