10
Lattice="16.28999089631971 0.0 0.0 0.0 16.28999089631971 0.0 0.0 0.0 34.36671206372826" Properties=species:S:1:pos:R:3:initial_magmoms:R:1 pbc="T T T"
Si       1.42685739       1.80243963      -0.34098671       0.00000000
Si      -0.70275060       0.80218476       2.08293322       0.00000000
Si      -1.78020052      -0.56927034      -1.42391678       0.00000000
Si       1.37906253      -1.89367992       0.29142988       0.00000000
Si       0.84926286      -2.23875099       2.52341161       0.00000000
Si      -1.92153745      -2.87451711      -1.08774141       0.00000000
Si      -0.86496642      -0.42813378      -3.58259427       0.00000000
Si      -1.49302737       3.02314707       1.73338919       0.00000000
Si       2.65543290       2.04846750       1.77483547       0.00000000
Si      -2.48718489      -0.52668828       2.82109624       0.00000000
