10
Lattice="16.28999089631971 0.0 0.0 0.0 16.28999089631971 0.0 0.0 0.0 34.36671206372826" Properties=species:S:1:pos:R:3:initial_magmoms:R:1 pbc="T T T"
Si       1.45450152      -1.10767113       1.53877383       0.00000000
Si       1.79957259       1.06295508      -1.18136811       0.00000000
Si      -0.85879251      -1.92207339      -1.35399220       0.00000000
Si      -1.26197001       1.60246359       1.50617698       0.00000000
Si      -2.63824206      -2.55536343       0.11613549       0.00000000
Si       2.80870551      -2.43833607       0.09972194       0.00000000
Si       0.10236636      -2.45680893       2.90632917       0.00000000
Si       1.00872567      -3.54305871      -1.03522080       0.00000000
Si       3.54522528      -0.72079992      -1.39255168       0.00000000
Si      -2.61640206       0.25490592       2.90571057       0.00000000
