10
Lattice="16.28999089631971 0.0 0.0 0.0 16.28999089631971 0.0 0.0 0.0 34.36671206372826" Properties=species:S:1:pos:R:3:initial_magmoms:R:1 pbc="T T T"
Si      -1.35593218      -1.35498591       1.35721095       0.00000000
Si       1.35981348      -1.35654975      -1.35889492       0.00000000
Si       1.35829526       1.36028016       1.35693602       0.00000000
Si      -1.35578557       1.36370106      -1.35810449       0.00000000
Si       0.00161419      -2.71274112       2.71449064       0.00000000
Si       2.71598856      -2.71184517       0.00027493       0.00000000
Si      -2.71376884       0.00293220       2.71466247       0.00000000
Si      -2.71191178       2.71709055       0.00017183       0.00000000
Si      -2.71495801      -2.71489140       0.00054987       0.00000000
Si       2.71561389       2.71510317       0.00030930       0.00000000
