10
Lattice="16.28999089631971 0.0 0.0 0.0 16.28999089631971 0.0 0.0 0.0 34.36671206372826" Properties=species:S:1:pos:R:3:initial_magmoms:R:1 pbc="T T T"
Si       1.44291933       1.17590994      -1.40405281       0.00000000
Si      -2.00453011      -0.47892600      -1.11303533       0.00000000
Si      -0.59935797       1.27215126       1.88996402       0.00000000
Si       1.18736181      -1.89037305       0.80720578       0.00000000
Si      -1.73252295      -0.66966561       2.88158168       0.00000000
Si      -3.22335606      -0.91448802       0.94566934       0.00000000
Si       1.49130063       2.37324123       2.23442177       0.00000000
Si      -2.30809100       1.61632638      -2.22404301       0.00000000
Si       2.19284577       2.84838795       0.03378250       0.00000000
Si       2.59266753      -2.35199907      -1.05732685       0.00000000
