10
Lattice="16.28999089631971 0.0 0.0 0.0 16.28999089631971 0.0 0.0 0.0 34.63643526849801" Properties=species:S:1:pos:R:3:initial_magmoms:R:1 pbc="T T T"
Si       1.35679410       1.35705474      -1.35722947       0.00000000
Si      -1.35863487      -1.35836215      -1.35698702       0.00000000
Si       1.35576783      -1.35963719       1.36308304       0.00000000
Si      -1.36045935       1.36085031       1.36353331       0.00000000
Si      -0.00094482       2.71363707      -2.71511704       0.00000000
Si       2.71487511      -0.00049522      -2.71456286       0.00000000
Si      -2.71549413      -0.00096763      -2.71515168       0.00000000
Si      -0.00138465      -2.71540358      -2.71535950       0.00000000
Si      -2.71678918       2.71454931      -0.00117764       0.00000000
Si       2.71446786      -2.71716290      -0.00072737       0.00000000
