10
Lattice="16.28999089631971 0.0 0.0 0.0 16.28999089631971 0.0 0.0 0.0 34.63643526849801" Properties=species:S:1:pos:R:3:initial_magmoms:R:1 pbc="T T T"
Si       1.77846075      -0.85071267       1.29737422       0.00000000
Si       0.68181795       0.66334509      -2.16490799       0.00000000
Si      -0.93129930       1.85585454       1.26805792       0.00000000
Si      -1.79194887      -1.70206065      -0.12351360       0.00000000
Si       0.43735392      -2.20444425       2.65608613       0.00000000
Si       2.77374717       1.51972668      -1.56940343       0.00000000
Si      -2.29074867       0.52619958       2.65276103       0.00000000
Si       3.16315962      -2.18696508      -0.02731431       0.00000000
Si      -0.92287737      -3.52917963       1.27811288       0.00000000
Si      -1.83135438      -2.34114993      -2.56343504       0.00000000
