10
Lattice="16.28999089631971 0.0 0.0 0.0 16.28999089631971 0.0 0.0 0.0 34.63643526849801" Properties=species:S:1:pos:R:3:initial_magmoms:R:1 pbc="T T T"
Si      -1.35855342       1.35659862      -1.36155903       0.00000000
Si       1.35850455      -1.35886293      -1.36204394       0.00000000
Si      -1.36041048      -1.36026387       1.37631416       0.00000000
Si       1.34905635       1.37283975       1.39065365       0.00000000
Si       2.71516833       2.71246419       0.00083127       0.00000000
Si       2.71691136      -2.71270854      -0.00502229       0.00000000
Si      -2.71378368       2.71694394      -0.00488374       0.00000000
Si      -2.71536381      -2.71538010      -0.00232064       0.00000000
Si      -2.71482624      -0.00017919      -2.71871923       0.00000000
Si       0.00032580       2.71487511      -2.71878851       0.00000000
