10
Lattice="16.28999089631971 0.0 0.0 0.0 16.28999089631971 0.0 0.0 0.0 34.63643526849801" Properties=species:S:1:pos:R:3:initial_magmoms:R:1 pbc="T T T"
Si      -1.35627282      -1.35677781      -1.35716020       0.00000000
Si      -1.35523026       1.36034532       1.35667529       0.00000000
Si       1.35887922       1.35827649      -1.35722947       0.00000000
Si       1.35855342      -1.35659862       1.36155903       0.00000000
Si      -2.71274112      -2.71515204      -0.00013855       0.00000000
Si      -2.71322982       2.71554300      -0.00027709       0.00000000
Si      -2.71464705       0.00073305      -2.71432040       0.00000000
Si       0.00154755      -2.71422351      -2.71483995       0.00000000
Si       0.00210141       2.71568961      -2.71511704       0.00000000
Si       2.71653669       0.00128691      -2.71494386       0.00000000
