10
Lattice="16.28999089631971 0.0 0.0 0.0 16.28999089631971 0.0 0.0 0.0 34.63643526849801" Properties=species:S:1:pos:R:3:initial_magmoms:R:1 pbc="T T T"
Si      -2.01318336       0.29098827      -1.15800059       0.00000000
Si       1.45042902       1.43769024      -1.16298824       0.00000000
Si       0.90095103      -2.07490617      -0.68715262       0.00000000
Si      -0.13155804       0.60067746       2.33712941       0.00000000
Si      -2.58499494       2.29798143       0.02996053       0.00000000
Si       0.56122308      -1.79577702      -3.00166443       0.00000000
Si       1.14440508       0.52603668      -3.34428824       0.00000000
Si      -0.22185351      -3.48557130       0.79068099       0.00000000
Si       1.75404204      -0.60009102       3.08510365       0.00000000
Si       3.31811010       1.44290304       0.31754702       0.00000000
