10
Lattice="16.28999089631971 0.0 0.0 0.0 16.28999089631971 0.0 0.0 0.0 34.63643526849801" Properties=species:S:1:pos:R:3:initial_magmoms:R:1 pbc="T T T"
Si       2.26698156       0.29998035      -0.50922516       0.00000000
Si      -1.03702140       0.90090216      -1.90649437       0.00000000
Si      -0.33169698      -2.33753355       0.08676432       0.00000000
Si      -0.95899230       1.04293467       1.89648444       0.00000000
Si      -2.78513388      -0.64022958      -2.22040456       0.00000000
Si      -3.31622046       0.83381994       1.30887698       0.00000000
Si       0.61647876       0.76595580      -3.56821292       0.00000000
Si      -0.20013894      -2.93821101      -2.25036509       0.00000000
Si       2.22765750       1.92383271      -2.30477896       0.00000000
Si      -3.56047272      -1.14142401      -0.02223660       0.00000000
