10
Lattice="16.28999089631971 0.0 0.0 0.0 16.28999089631971 0.0 0.0 0.0 34.63643526849801" Properties=species:S:1:pos:R:3:initial_magmoms:R:1 pbc="T T T"
Si       1.19452941      -0.16047279      -2.00413454       0.00000000
Si      -0.87583185       2.16510620       0.13089116       0.00000000
Si       1.58739534      -0.29603817       1.70878949       0.00000000
Si      -0.68530401      -1.17113697      -3.05968049       0.00000000
Si      -1.97267013       1.87786137       2.26868778       0.00000000
Si       0.11518659      -1.53054324       3.20986416       0.00000000
Si      -2.14190694      -2.41857630      -1.52601292       0.00000000
Si       1.81874592       1.90171971       2.81033266       0.00000000
Si       2.91089268      -1.89970722      -1.70754258       0.00000000
Si       3.58342533      -1.48799376       0.63027956       0.00000000
