10
Lattice="16.28999089631971 0.0 0.0 0.0 16.28999089631971 0.0 0.0 0.0 34.63643526849801" Properties=species:S:1:pos:R:3:initial_magmoms:R:1 pbc="T T T"
Si      -1.46478933       1.80368093      -0.03813474       0.00000000
Si       0.96345413      -0.24842087      -2.15462993       0.00000000
Si      -1.43007534      -1.84616592       0.59207556       0.00000000
Si       1.67115689      -0.46419658       1.75267388       0.00000000
Si       2.09971421       1.95247379       1.00269072       0.00000000
Si       0.05183804      -3.29581302      -0.45560792       0.00000000
Si       1.99368260      -2.64339852       0.70537140       0.00000000
Si      -0.09069132      -2.27822559      -2.61557187       0.00000000
Si      -2.07061443       1.97027876       2.19484286       0.00000000
Si       1.66102451       3.45170765      -0.78960726       0.00000000
