10
Lattice="16.28999089631971 0.0 0.0 0.0 16.28999089631971 0.0 0.0 0.0 34.63643526849801" Properties=species:S:1:pos:R:3:initial_magmoms:R:1 pbc="T T T"
Si       0.95899230      -1.04293467      -1.89648444       0.00000000
Si       0.36178461       2.32837857       0.36309395       0.00000000
Si       0.74134161      -0.69737490       2.15653494       0.00000000
Si      -2.35722816      -0.20911473      -0.58760745       0.00000000
Si      -1.02252330       0.34932276       3.32291755       0.00000000
Si      -0.46266858       2.62189179       2.58710071       0.00000000
Si      -0.72322713       3.47683353      -1.35993112       0.00000000
Si      -0.07802910      -0.14203251      -3.80297881       0.00000000
Si      -2.84252355       1.41662727      -2.19712886       0.00000000
Si       0.62729532      -3.38046822      -1.80972012       0.00000000
