10
Lattice="16.28999089631971 0.0 0.0 0.0 16.28999089631971 0.0 0.0 0.0 34.63643526849801" Properties=species:S:1:pos:R:3:initial_magmoms:R:1 pbc="T T T"
Si      -1.28938608       1.31990051       1.44723923       0.00000000
Si       2.01860793       0.59279636      -1.13508372       0.00000000
Si      -1.79108550      -0.77656222      -1.38320478       0.00000000
Si       1.39654170      -1.41913986       1.41443851       0.00000000
Si      -2.64117915       2.67128633       0.11607369       0.00000000
Si       2.68583004       2.64365849       0.01075808       0.00000000
Si      -2.68576488      -2.73496461      -0.18137033       0.00000000
Si      -2.65854429      -0.05438905       2.78762846       0.00000000
Si       0.05911641       2.65957382       2.79909313       0.00000000
Si       0.05341491      -2.76593190       2.79604512       0.00000000
