10
Lattice="16.28999089631971 0.0 0.0 0.0 16.28999089631971 0.0 0.0 0.0 34.63643526849801" Properties=species:S:1:pos:R:3:initial_magmoms:R:1 pbc="T T T"
Si       1.35998694      -1.35905962       1.36349867       0.00000000
Si       1.36915821       1.37428956      -1.34038923       0.00000000
Si      -1.35879777       1.36067112       1.36564613       0.00000000
Si      -1.36089918      -1.38182273      -1.37112216       0.00000000
Si       0.01736514       2.72567538      -2.67155477       0.00000000
Si      -2.70844056       2.70819621       0.01184567       0.00000000
Si       2.71195920      -2.71154285       0.00841666       0.00000000
Si      -2.71132389      -2.71568051       0.00474519       0.00000000
Si       2.71766070       2.71396287       0.01146467       0.00000000
Si       0.00037467      -2.71380716       2.72031251       0.00000000
