10
Lattice="16.28999089631971 0.0 0.0 0.0 16.28999089631971 0.0 0.0 0.0 34.63643526849801" Properties=species:S:1:pos:R:3:initial_magmoms:R:1 pbc="T T T"
Si      -1.34964279       1.34752509      -1.35380047       0.00000000
Si       1.35913986       1.35422028       1.35490883       0.00000000
Si      -1.35474156      -1.35948847       1.35504738       0.00000000
Si       1.35879777      -1.36067112      -1.36564613       0.00000000
Si      -0.00853596       2.70125667      -2.71251238       0.00000000
Si      -2.71257822       2.71075374      -0.00644238       0.00000000
Si       0.00154755       2.71285515       2.71196512       0.00000000
Si      -2.71282257      -0.00193851       2.71238076       0.00000000
Si       2.71814940       2.71041165      -0.00297874       0.00000000
Si      -2.71107954      -2.71757219      -0.00335974       0.00000000
