10
Lattice="16.28999089631971 0.0 0.0 0.0 16.28999089631971 0.0 0.0 0.0 34.63643526849801" Properties=species:S:1:pos:R:3:initial_magmoms:R:1 pbc="T T T"
Si       1.35726651       1.35061530      -1.35584402       0.00000000
Si       1.29968136      -1.37127169       1.40423114       0.00000000
Si      -1.35557235      -1.36394119      -1.35958475       0.00000000
Si      -1.23336477       1.41396711       1.45085181       0.00000000
Si      -2.02665519      -0.38148411       2.76513208       0.00000000
Si      -0.55602657      -2.26402885       2.60815967       0.00000000
Si       2.14694055       0.41328870       2.76921918       0.00000000
Si       0.54618741       2.25958101       2.79575071       0.00000000
Si      -0.00011403       2.70838680      -2.71490922       0.00000000
Si      -2.71699281       2.70853341       0.03075717       0.00000000
