10
Lattice="16.28999089631971 0.0 0.0 0.0 16.28999089631971 0.0 0.0 0.0 34.63643526849801" Properties=species:S:1:pos:R:3:initial_magmoms:R:1 pbc="T T T"
Si      -1.21020039       0.81819783      -1.86292171       0.00000000
Si       0.23219766       1.03939974       2.12536213       0.00000000
Si      -0.59842944      -2.32881351       0.23452343       0.00000000
Si       2.25754965       0.35111466      -0.78558943       0.00000000
Si      -0.76132944      -0.97911045      -3.35876628       0.00000000
Si      -1.69951941      -2.62957904      -1.87494056       0.00000000
Si       1.53010341      -3.31373528       0.50378723       0.00000000
Si       2.54229885       1.17025731       2.53334493       0.00000000
Si      -1.08053199      -0.24273729       3.62401225       0.00000000
Si       3.09260763       2.15746389       0.48279754       0.00000000
