10
Lattice="16.28999089631971 0.0 0.0 0.0 16.28999089631971 0.0 0.0 0.0 34.63643526849801" Properties=species:S:1:pos:R:3:initial_magmoms:R:1 pbc="T T T"
Si       1.35840681      -1.35384561       1.35702166       0.00000000
Si      -1.35843939      -1.35622395      -1.35705629       0.00000000
Si       1.35707103       1.35845568      -1.35719484       0.00000000
Si      -1.35850455       1.35886293       1.36204394       0.00000000
Si       2.69307909      -0.00307881       2.72689344       0.00000000
Si      -2.71384884      -2.71147050       0.00055418       0.00000000
Si       2.71352304      -2.71524978       0.00045027       0.00000000
Si      -0.00084708      -2.71485882      -2.71411258       0.00000000
Si       2.71464705       0.00187335      -2.71463213       0.00000000
Si      -2.71551042       0.00123804      -2.71435504       0.00000000
