10
Lattice="16.28999089631971 0.0 0.0 0.0 16.28999089631971 0.0 0.0 0.0 34.63643526849801" Properties=species:S:1:pos:R:3:initial_magmoms:R:1 pbc="T T T"
Si      -2.26238778       0.37682028      -0.57936398       0.00000000
Si       1.71484830       0.51565995      -1.59760647       0.00000000
Si       0.36797481       1.79608653       1.57256431       0.00000000
Si       0.38946132      -2.39394582       0.27345481       0.00000000
Si       2.69956251      -2.26308825       0.68143761       0.00000000
Si      -3.38519232      -1.03384485       0.89846963       0.00000000
Si       3.24987129      -1.27588167      -1.36910978       0.00000000
Si      -2.33320041      -0.31535811       2.97994737       0.00000000
Si       2.55425571       1.45891611       2.45846091       0.00000000
Si       0.15726366      -3.43334556      -1.85190732       0.00000000
