10
Lattice="16.28999089631971 0.0 0.0 0.0 16.28999089631971 0.0 0.0 0.0 34.63643526849801" Properties=species:S:1:pos:R:3:initial_magmoms:R:1 pbc="T T T"
Si       1.91256003      -1.15836561      -0.70512894       0.00000000
Si      -0.70038855       1.81470600      -1.33655151       0.00000000
Si      -1.61432271      -1.72270008       0.36918997       0.00000000
Si       0.62731161       1.04119164       2.19650541       0.00000000
Si       1.06787466      -1.47670479       2.57913432       0.00000000
Si      -1.10899062       2.72937321       2.10177470       0.00000000
Si      -1.22104953      -2.17249956       2.63444874       0.00000000
Si      -2.38936833       2.74634739       0.11509694       0.00000000
Si       1.18073178       3.27766203      -1.50453832       0.00000000
Si       2.82587517      -2.26134522       1.19038567       0.00000000
