10
Lattice="16.28999089631971 0.0 0.0 0.0 16.28999089631971 0.0 0.0 0.0 34.63643526849801" Properties=species:S:1:pos:R:3:initial_magmoms:R:1 pbc="T T T"
Si       1.39556430       1.91337453      -0.22402859       0.00000000
Si       1.64033784      -1.35005004       1.15238948       0.00000000
Si      -1.64423115       0.66924207       1.64162940       0.00000000
Si       0.32514840      -1.45860660      -1.97597510       0.00000000
Si       1.42086267       0.21392028      -3.21883500       0.00000000
Si      -2.80811907      -1.39466835       1.82295124       0.00000000
Si      -2.52700254       2.60304426       0.50676597       0.00000000
Si      -0.29100456       3.67707654       0.11786786       0.00000000
Si       3.10311468       1.15621533      -1.84470294       0.00000000
Si       2.92944699       1.88675667       1.63141165       0.00000000
