10
Lattice="16.28999089631971 0.0 0.0 0.0 16.28999089631971 0.0 0.0 0.0 34.63643526849801" Properties=species:S:1:pos:R:3:initial_magmoms:R:1 pbc="T T T"
Si       0.08332335      -1.34998488       1.92131877       0.00000000
Si      -0.68144328       1.53613071       1.68901207       0.00000000
Si       2.35085877       0.43535025      -0.04530448       0.00000000
Si      -0.94915314      -0.83917935      -2.06907789       0.00000000
Si       0.87467526       0.53284590       3.43406593       0.00000000
Si      -1.83192453       1.09462284      -3.20394133       0.00000000
Si       3.64671198      -1.49845194       0.12971352       0.00000000
Si       1.09701747      -3.45442482       1.61336606       0.00000000
Si       3.04142445       2.41583958       0.98963278       0.00000000
Si      -0.36698112       3.80018007       1.35483956       0.00000000
