10
Lattice="16.28999089631971 0.0 0.0 0.0 16.28999089631971 0.0 0.0 0.0 34.63643526849801" Properties=species:S:1:pos:R:3:initial_magmoms:R:1 pbc="T T T"
Si      -0.08962758      -1.60136239      -1.69784437       0.00000000
Si       1.30243437       1.91295099      -0.77204657       0.00000000
Si       1.85332959      -1.70017264       0.16493880       0.00000000
Si      -1.80297720      -0.60942845       1.66599411       0.00000000
Si       1.34183988       2.55204027       1.66787487       0.00000000
Si      -1.91763599      -2.98787012      -1.02336869       0.00000000
Si      -0.51649074      -2.01131856       3.08021094       0.00000000
Si       0.80938494      -3.26480012       1.61765894       0.00000000
Si       2.21091138       0.72492129       3.06950135       0.00000000
Si       3.49593174      -0.72103938       1.73909088       0.00000000
