10
Lattice="16.28999089631971 0.0 0.0 0.0 16.28999089631971 0.0 0.0 0.0 34.63643526849801" Properties=species:S:1:pos:R:3:initial_magmoms:R:1 pbc="T T T"
Si       1.35671265       1.35632169      -1.35844175       0.00000000
Si      -1.35817875      -1.35917244      -1.35799148       0.00000000
Si      -1.36137159       1.35884664       1.35858030       0.00000000
Si       1.35666378      -1.36158336       1.36162830       0.00000000
Si      -0.00188964       2.72292237       2.69717536       0.00000000
Si      -2.71513575       2.71184517      -0.00138546       0.00000000
Si      -0.00081450       2.71352304      -2.71560195       0.00000000
Si       2.71393029       2.71565703      -0.00169719       0.00000000
Si       2.71443528      -0.00185706      -2.71532486       0.00000000
Si      -2.71495656      -0.00175932      -2.71587904       0.00000000
