10
Lattice="16.28999089631971 0.0 0.0 0.0 16.28999089631971 0.0 0.0 0.0 34.63643526849801" Properties=species:S:1:pos:R:3:initial_magmoms:R:1 pbc="T T T"
Si       1.35948195       1.36407573       1.33859506       0.00000000
Si      -1.35376416       1.35299853      -1.35996575       0.00000000
Si       1.36137159      -1.35884664      -1.35858030       0.00000000
Si      -1.36796904      -1.35959598       1.36284058       0.00000000
Si       2.63860533       0.01384650       2.72893699       0.00000000
Si      -2.71246419       2.71052423       0.00384465       0.00000000
Si      -2.71091664      -2.71595025      -0.00266701       0.00000000
Si      -2.71173114      -0.00332316      -2.71674495       0.00000000
Si       0.00371412       2.71160770      -2.71722987       0.00000000
Si       2.71943631       2.71065600      -0.00405247       0.00000000
