10
Lattice="16.28999089631971 0.0 0.0 0.0 16.28999089631971 0.0 0.0 0.0 34.63643526849801" Properties=species:S:1:pos:R:3:initial_magmoms:R:1 pbc="T T T"
Si       1.27912338      -1.35022923       1.39034193       0.00000000
Si       1.35995436       1.34658027      -1.34264753       0.00000000
Si      -1.35948195      -1.36407573      -1.33859506       0.00000000
Si      -1.16502822       1.51447220       1.37825380       0.00000000
Si      -2.18452158      -0.34316514       2.50705586       0.00000000
Si       2.15950014       0.44649261       2.62509690       0.00000000
Si      -0.46815831      -2.08239957       2.80364782       0.00000000
Si       0.68887152       2.32903736       2.78206931       0.00000000
Si       0.00169416       2.70314046      -2.69842227       0.00000000
Si      -2.71324611      -0.01107720      -2.69856082       0.00000000
