10
Lattice="16.28999089631971 0.0 0.0 0.0 16.28999089631971 0.0 0.0 0.0 34.63643526849801" Properties=species:S:1:pos:R:3:initial_magmoms:R:1 pbc="T T T"
Si      -1.35011520       1.34910522       1.35674456       0.00000000
Si       1.35944937       1.32965496      -1.38470311       0.00000000
Si       1.36516716      -1.36741518       1.35068318       0.00000000
Si      -1.33522614      -1.36422234      -1.39045623       0.00000000
Si       2.29074867      -0.52619958      -2.65276103       0.00000000
Si       0.49879980      -2.22826023      -2.77627463       0.00000000
Si      -2.70675943       2.70532917      -0.00471056       0.00000000
Si       0.00602730       2.70710478       2.71231149       0.00000000
Si      -2.70779385      -0.00656487       2.71258858       0.00000000
Si       2.72608263       2.70645318      -0.00471056       0.00000000
