10
Lattice="16.28999089631971 0.0 0.0 0.0 16.28999089631971 0.0 0.0 0.0 34.63643526849801" Properties=species:S:1:pos:R:3:initial_magmoms:R:1 pbc="T T T"
Si      -1.11685869      -1.71812000       1.20984616       0.00000000
Si       1.74176657       1.17246298       1.18918206       0.00000000
Si      -1.78851168       1.77053729       0.03610469       0.00000000
Si       1.62710777      -1.20597869      -1.50018074       0.00000000
Si      -1.58871483       0.02957450      -2.62676607       0.00000000
Si      -2.41057791      -0.24139892       2.58562692       0.00000000
Si       0.32612544       2.50190942       2.58731718       0.00000000
Si      -0.02173086      -1.72504325      -3.19556592       0.00000000
Si      -2.52185490      -2.91465308      -0.37896407       0.00000000
Si       0.31442623      -2.94843854       2.61728464       0.00000000
