10
Lattice="16.28999089631971 0.0 0.0 0.0 16.28999089631971 0.0 0.0 0.0 34.63643526849801" Properties=species:S:1:pos:R:3:initial_magmoms:R:1 pbc="T T T"
Si      -1.35452722       1.35830907      -1.35688311       0.00000000
Si       1.35702703       1.35804843       1.35816466       0.00000000
Si      -1.35791554      -1.35896067       1.35747193       0.00000000
Si       1.35714594      -1.36381509      -1.35916912       0.00000000
Si       0.00743169       2.69625564      -2.71008090       0.00000000
Si       2.71470567       2.71371852       0.00232064       0.00000000
Si      -0.00039290       2.71448415       2.71466677       0.00000000
Si       2.71495002      -2.71446786       0.00017318       0.00000000
Si      -2.71550785       2.71402803       0.00058882       0.00000000
Si       2.71477083      -0.00089595       2.71515168       0.00000000
