10
Lattice="16.28999089631971 0.0 0.0 0.0 16.28999089631971 0.0 0.0 0.0 34.63643526849801" Properties=species:S:1:pos:R:3:initial_magmoms:R:1 pbc="T T T"
Si       1.35728280       1.35663120      -1.35650211       0.00000000
Si      -1.35757602       1.35658233       1.35743729       0.00000000
Si       1.35723393      -1.35827649       1.35764511       0.00000000
Si      -1.35648459      -1.36054080      -1.35736802       0.00000000
Si      -0.00278559       2.71479366      -2.71040648       0.00000000
Si       0.00182448      -2.71766070      -2.70857075       0.00000000
Si       2.71526607       2.71376739       0.00083127       0.00000000
Si       0.00060273       2.71379997       2.71532486       0.00000000
Si      -2.71464705      -0.00187335       2.71463213       0.00000000
Si       2.71503801      -0.00006516       2.71428577       0.00000000
