10
Lattice="16.28999089631971 0.0 0.0 0.0 16.28999089631971 0.0 0.0 0.0 34.63643526849801" Properties=species:S:1:pos:R:3:initial_magmoms:R:1 pbc="T T T"
Si      -1.35619137      -1.35630540      -1.35781829       0.00000000
Si      -1.35511623       1.36140417       1.35657138       0.00000000
Si       1.35738054      -1.35777150       1.35906521       0.00000000
Si       1.35835794       1.35884664      -1.35743729       0.00000000
Si       0.00011403      -2.70838680       2.71490922       0.00000000
Si       0.00073305      -2.71362404      -2.71473604       0.00000000
Si       2.71463076      -2.71374621      -0.00034636       0.00000000
Si      -2.71352304       2.71524978      -0.00045027       0.00000000
Si      -2.71437012       0.00039096      -2.71456286       0.00000000
Si      -2.71371852      -2.71576780      -0.00045027       0.00000000
