10
Lattice="16.28999089631971 0.0 0.0 0.0 16.28999089631971 0.0 0.0 0.0 34.63643526849801" Properties=species:S:1:pos:R:3:initial_magmoms:R:1 pbc="T T T"
Si      -1.33467228      -1.35076680      -1.36987178       0.00000000
Si       1.37034738      -1.35536058       1.35785293       0.00000000
Si       1.37943720       1.36365219      -1.36671986       0.00000000
Si      -1.37916027       1.32625035       1.45393446       0.00000000
Si       2.06715213       0.58179735       2.62617063       0.00000000
Si       0.36155655       2.42657469       2.63025773       0.00000000
Si      -2.69643483      -2.71202436       0.01922323       0.00000000
Si      -2.69307909       0.00307881      -2.72689344       0.00000000
Si      -2.70252729       2.73478149       0.02580416       0.00000000
Si       0.02044395      -2.71217097      -2.72644316       0.00000000
