10
Lattice="16.28999089631971 0.0 0.0 0.0 16.28999089631971 0.0 0.0 0.0 34.63643526849801" Properties=species:S:1:pos:R:3:initial_magmoms:R:1 pbc="T T T"
Si       1.35767865       1.35567009      -1.35584402       0.00000000
Si      -1.35741993       1.35643572       1.35650211       0.00000000
Si      -1.35702703      -1.35804843      -1.35816466       0.00000000
Si       1.35774381      -1.35894438       1.35698702       0.00000000
Si       2.70779385       0.00656487      -2.71258858       0.00000000
Si      -2.71155425       0.00026064      -2.71504777       0.00000000
Si       2.71382115       2.71366965      -0.00027709       0.00000000
Si      -2.71455161       2.71311579      -0.00024246       0.00000000
Si      -2.71477967      -0.00071676       2.71321204       0.00000000
Si       0.00017267       2.71508688       2.71390477       0.00000000
