10
Lattice="16.28999089631971 0.0 0.0 0.0 16.28999089631971 0.0 0.0 0.0 34.63643526849801" Properties=species:S:1:pos:R:3:initial_magmoms:R:1 pbc="T T T"
Si       0.30913533       0.84401748       2.12841014       0.00000000
Si      -2.08230183       0.53623422      -0.86719291       0.00000000
Si       1.72382409       0.97770951      -1.25030674       0.00000000
Si       0.53890578      -2.31749685       0.01565568       0.00000000
Si       1.14473088      -2.48409468      -2.21732192       0.00000000
Si       0.92479959      -1.30333032       3.15950275       0.00000000
Si       3.47637789       0.92654262       0.32572122       0.00000000
Si      -3.56905755      -0.41177862       0.72099244       0.00000000
Si       1.92867102      -0.42863877      -3.11125417       0.00000000
Si      -2.22250986      -0.75377088      -2.84988749       0.00000000
