10
Lattice="16.28999089631971 0.0 0.0 0.0 16.28999089631971 0.0 0.0 0.0 34.63643526849801" Properties=species:S:1:pos:R:3:initial_magmoms:R:1 pbc="T T T"
Si      -0.21059712       2.08930653      -1.09312651       0.00000000
Si       2.02496103      -1.21020039      -0.22437495       0.00000000
Si      -1.84205691      -1.23297381      -1.04470474       0.00000000
Si       0.20624769       1.25977086       2.46490818       0.00000000
Si       1.95059718      -0.47338740       2.36404593       0.00000000
Si       0.76442454      -0.38556801      -3.34033968       0.00000000
Si      -0.93921624       1.33965702      -3.18883983       0.00000000
Si      -3.60005742      -0.44833338       0.34404390       0.00000000
Si       1.38008880      -2.53291581      -2.30924707       0.00000000
Si       2.09191293       3.06853101      -0.92836089       0.00000000
