10
Lattice="16.28999089631971 0.0 0.0 0.0 16.28999089631971 0.0 0.0 0.0 34.63643526849801" Properties=species:S:1:pos:R:3:initial_magmoms:R:1 pbc="T T T"
Si       1.35775521       1.35614250       1.35792220       0.00000000
Si       1.35764118      -1.35780408      -1.35650211       0.00000000
Si      -1.35783666       1.35760860      -1.35677920       0.00000000
Si      -1.35702216      -1.35777150       1.35799148       0.00000000
Si       2.71460529      -0.00117288      -2.71390477       0.00000000
Si      -0.00034209      -2.71494027      -2.71383549       0.00000000
Si      -2.71484253       0.00004887      -2.71393940       0.00000000
Si       2.71477286      -2.71448415       0.00024246       0.00000000
Si       2.71499865       2.71511946       0.00055418       0.00000000
Si      -2.71520091      -2.71498914       0.00010391       0.00000000
