10
Lattice="16.28999089631971 0.0 0.0 0.0 16.28999089631971 0.0 0.0 0.0 34.63643526849801" Properties=species:S:1:pos:R:3:initial_magmoms:R:1 pbc="T T T"
Si       0.93144591       1.78202826      -1.21120218       0.00000000
Si      -1.68225201      -0.94229505      -1.37413206       0.00000000
Si      -1.70755038       0.75715920       1.62067435       0.00000000
Si       1.95757974      -1.86422760      -0.07962921       0.00000000
Si       2.83304996       1.23400008       1.19520014       0.00000000
Si      -0.17366769       0.73054134       3.47611459       0.00000000
Si       2.31450342       0.40650066      -2.74691331       0.00000000
Si      -0.40286799      -2.31774120      -2.77728948       0.00000000
Si      -3.10311468      -1.15621533       1.84470294       0.00000000
Si      -2.77796628      -2.61482193      -0.13127216       0.00000000
