10
Lattice="16.28999089631971 0.0 0.0 0.0 16.28999089631971 0.0 0.0 0.0 34.63643526849801" Properties=species:S:1:pos:R:3:initial_magmoms:R:1 pbc="T T T"
Si      -1.34983242      -1.36321236      -1.38393418       0.00000000
Si       1.36136833       1.35816246      -1.38310291       0.00000000
Si       1.39613119      -1.22481252       1.50623550       0.00000000
Si      -1.42136181       1.37844351       1.41313271       0.00000000
Si      -2.68636176      -2.72028339      -0.00914402       0.00000000
Si       2.71422025      -2.70075168      -0.00453738       0.00000000
Si      -2.70773424       2.71759554      -0.03203872       0.00000000
Si       2.71861855       2.71471221      -0.02272151       0.00000000
Si      -2.70778311      -0.00117288      -2.74351893       0.00000000
Si       0.00716923       2.71463076      -2.74282621       0.00000000
