10
Lattice="16.28999089631971 0.0 0.0 0.0 16.28999089631971 0.0 0.0 0.0 34.63643526849801" Properties=species:S:1:pos:R:3:initial_magmoms:R:1 pbc="T T T"
Si       1.29585321      -1.93380219       0.17501801       0.00000000
Si       0.69056568       1.98048933       1.03493726       0.00000000
Si      -2.35085877      -0.43535025       0.04530448       0.00000000
Si       1.27366623      -0.05701500      -2.03399116       0.00000000
Si      -2.26753542      -1.78533513       1.96662326       0.00000000
Si      -0.80451423       3.53071089       0.02175169       0.00000000
Si      -3.03230205       1.10078046       1.73431656       0.00000000
Si       2.11478409      -2.31891408      -2.04500555       0.00000000
Si      -1.47618351       0.09749565       3.47937041       0.00000000
Si      -0.11507256       2.06425251       3.24356543       0.00000000
