10
Lattice="16.28999089631971 0.0 0.0 0.0 16.28999089631971 0.0 0.0 0.0 34.63643526849801" Properties=species:S:1:pos:R:3:initial_magmoms:R:1 pbc="T T T"
Si       1.48191337      -1.44964710      -1.04768348       0.00000000
Si      -1.81138284      -0.40439925      -1.44891217       0.00000000
Si      -0.58490874      -0.15188796       2.30450187       0.00000000
Si       1.43007534       1.84616592      -0.59207556       0.00000000
Si       1.33938402      -0.43205967      -3.20764743       0.00000000
Si       3.42375794      -0.79723260       0.11329584       0.00000000
Si       3.10123223       1.38196934       1.16059832       0.00000000
Si      -0.03471399       3.64984685      -0.63021029       0.00000000
Si      -1.57170807       1.97715381       2.77656211       0.00000000
Si      -3.34805112       1.34489248      -1.22502213       0.00000000
