10
Lattice="16.28999089631971 0.0 0.0 0.0 16.28999089631971 0.0 0.0 0.0 34.63643526849801" Properties=species:S:1:pos:R:3:initial_magmoms:R:1 pbc="T T T"
Si      -1.19066868      -1.38157119       1.54727074       0.00000000
Si       1.40499621       1.19653308       1.58881024       0.00000000
Si       1.00374093      -0.64441611      -2.23110722       0.00000000
Si      -1.30751685       2.21478840      -2.56122727       0.00000000
Si      -2.92905603      -2.30182587       0.28023726       0.00000000
Si       0.93314007       2.94422758      -2.24780200       0.00000000
Si       2.52185490       2.91465308       0.37896407       0.00000000
Si      -2.58330078      -0.01663209       2.95337225       0.00000000
Si       2.50012404       1.18960983      -2.81660185       0.00000000
Si       2.61565272      -2.41836453      -1.73057582       0.00000000
