10
Lattice="16.28999089631971 0.0 0.0 0.0 16.28999089631971 0.0 0.0 0.0 34.63643526849801" Properties=species:S:1:pos:R:3:initial_magmoms:R:1 pbc="T T T"
Si       0.73985922      -0.53654373      -2.16263095       0.00000000
Si       0.43868970      -1.49923386       1.79229798       0.00000000
Si      -2.34187369       0.40742919      -0.14245974       0.00000000
Si       1.39476609       1.87411563       0.51300053       0.00000000
Si       0.59805477       3.19854150      -1.26416132       0.00000000
Si      -2.54672063       1.81377747       1.71848770       0.00000000
Si      -3.12581384      -1.64802672       0.75147252       0.00000000
Si      -1.02768560      -1.93790727      -2.94143164       0.00000000
Si       0.67460148       1.73022606      -3.17470816       0.00000000
Si       2.68916949      -2.02316913      -1.65236670       0.00000000
