10
Lattice="16.28999089631971 0.0 0.0 0.0 16.28999089631971 0.0 0.0 0.0 34.63643526849801" Properties=species:S:1:pos:R:3:initial_magmoms:R:1 pbc="T T T"
Si       1.00286290      -0.89124219      -1.88398068       0.00000000
Si       0.34638567       2.29513068       0.29056522       0.00000000
Si      -2.16437967      -0.97376733      -0.08129176       0.00000000
Si       1.01740498      -0.72521451       2.02314995       0.00000000
Si      -0.83689128       2.48033169       2.33068703       0.00000000
Si      -1.54871541      -3.12111513       0.94980086       0.00000000
Si      -0.74969091      -0.84007530      -3.46000863       0.00000000
Si      -0.90384318      -1.79839971       3.03467297       0.00000000
Si       1.60710461      -3.09861864      -1.38265263       0.00000000
Si      -2.47351500      -1.81778481      -2.20970190       0.00000000
