10
Lattice="16.28999089631971 0.0 0.0 0.0 16.28999089631971 0.0 0.0 0.0 34.63643526849801" Properties=species:S:1:pos:R:3:initial_magmoms:R:1 pbc="T T T"
Si       1.35694071       1.34050410       1.36861448       0.00000000
Si      -1.35596005      -1.37334474       1.36826811       0.00000000
Si       1.32370911      -1.36335897      -1.43453804       0.00000000
Si      -1.39132075       1.40854743      -1.39312323       0.00000000
Si      -0.59199489      -2.25432423      -2.66394549       0.00000000
Si      -2.46810930      -0.34388190      -2.51506970       0.00000000
Si      -2.72255824       2.70068652       0.02292587       0.00000000
Si       0.00127062       2.70045846       2.72837241       0.00000000
Si       2.70637173       2.72376945      -0.01743599       0.00000000
Si       2.71482624      -0.01399311       2.72729868       0.00000000
