10
Lattice="16.28999089631971 0.0 0.0 0.0 16.28999089631971 0.0 0.0 0.0 34.63643526849801" Properties=species:S:1:pos:R:3:initial_magmoms:R:1 pbc="T T T"
Si      -1.35600534      -1.35275418       1.35109882       0.00000000
Si      -1.35571212       1.35625653      -1.35941157       0.00000000
Si       1.35889813      -1.35571896      -1.35968866       0.00000000
Si       1.36136607       1.37148768       1.38147499       0.00000000
Si      -2.63538936       0.02269197       2.75425624       0.00000000
Si       2.71309724      -2.71218726       0.00003464       0.00000000
Si      -2.71322298      -2.71275741       0.00013855       0.00000000
Si       2.71317869       2.71422351       0.00003464       0.00000000
Si      -2.71346733       0.00011403      -2.71733377       0.00000000
Si       0.00130553      -2.71437012      -2.71709132       0.00000000
