10
Lattice="16.28999089631971 0.0 0.0 0.0 16.28999089631971 0.0 0.0 0.0 34.63643526849801" Properties=species:S:1:pos:R:3:initial_magmoms:R:1 pbc="T T T"
Si      -1.35679899      -1.35826317       1.35729875       0.00000000
Si      -1.35685926       1.35739453      -1.35816466       0.00000000
Si       1.35725022      -1.35704142      -1.35837248       0.00000000
Si       1.35863487       1.35836215       1.35698702       0.00000000
Si      -2.71448182      -2.71499211      -0.00034636       0.00000000
Si      -2.71479180       2.71471642      -0.00051955       0.00000000
Si       0.00097740      -2.71533420      -2.71435504       0.00000000
Si       2.71513575      -2.71512243      -0.00051955       0.00000000
Si      -2.71505947      -0.00015057      -2.71556732       0.00000000
Si       2.71542897       2.71541689      -0.00024246       0.00000000
