10
Lattice="16.28999089631971 0.0 0.0 0.0 16.28999089631971 0.0 0.0 0.0 34.63643526849801" Properties=species:S:1:pos:R:3:initial_magmoms:R:1 pbc="T T T"
Si      -1.74662683      -0.91613331       1.27333998       0.00000000
Si       1.31927823      -1.37253024      -1.41500308       0.00000000
Si      -1.38970316       1.35459495      -1.39394412       0.00000000
Si       1.23033483       1.46434068       1.54814561       0.00000000
Si       0.20522142      -1.71805743       2.76866500       0.00000000
Si      -0.87115662       2.18209437       2.54816933       0.00000000
Si       2.27605509      -0.21854664       2.94215900       0.00000000
Si       2.66665671      -2.68918578      -0.00360219       0.00000000
Si       2.68693776       2.71178001       0.01447804       0.00000000
Si       2.68089417      -0.01441665      -2.77829393       0.00000000
