10
Lattice="16.28999089631971 0.0 0.0 0.0 16.28999089631971 0.0 0.0 0.0 34.63643526849801" Properties=species:S:1:pos:R:3:initial_magmoms:R:1 pbc="T T T"
Si      -0.50865525       2.16771030       0.90986503       0.00000000
Si       1.68353892      -0.99792540       1.41638854       0.00000000
Si      -2.40447242      -0.50976297       0.03131135       0.00000000
Si       0.77726106      -0.41563935      -2.35694146       0.00000000
Si      -1.20484098       1.53046179       3.02483622       0.00000000
Si      -1.58148207      -1.23641100       3.04305499       0.00000000
Si      -1.90387257       3.02932098      -0.70952777       0.00000000
Si       3.55302819       0.38162583       0.87980058       0.00000000
Si      -3.27856336       1.15189848      -1.38521573       0.00000000
Si       0.23899059      -2.67457365      -2.75602269       0.00000000
