10
Lattice="10.86 0.0 0.0 0.0 10.86 0.0 0.0 0.0 10.86" Properties=species:S:1:pos:R:3:initial_magmoms:R:1 pbc="T T T"
Si      -1.38294498       1.26678642      -1.44477096       0.00000000
Si      -1.38294498      -1.44821358       1.27022904       0.00000000
Si       1.33205502      -1.44821358      -1.44477096       0.00000000
Si       1.58688492       1.30081080       1.47722064       0.00000000
Si       3.09791274      -0.92213346       1.74662466       0.00000000
Si       0.06562698       2.56971492       2.65961400       0.00000000
Si      -2.74044498       2.62428642      -0.08727096       0.00000000
Si      -2.74044498      -0.09071358       2.62772904       0.00000000
Si      -0.02544498       2.62428642      -2.80227096       0.00000000
Si       2.68955502      -0.09071358      -2.80227096       0.00000000
