10
Lattice="10.86 0.0 0.0 0.0 10.86 0.0 0.0 0.0 10.86" Properties=species:S:1:pos:R:3:initial_magmoms:R:1 pbc="T T T"
Si      -0.20237610      -1.89630804      -1.49821302       0.00000000
Si      -0.98968266       0.24830304       2.27918820       0.00000000
Si      -1.51102782       2.22294426      -0.26940402       0.00000000
Si       2.11763484      -1.78657860       0.40892244       0.00000000
Si      -3.09791274       0.92213346      -1.74662466       0.00000000
Si      -1.76585772      -0.52608012      -3.19139562       0.00000000
Si      -1.76585772      -3.24108012      -0.47639562       0.00000000
Si       2.78759910       1.31168166      -2.38116360       0.00000000
Si      -0.49102404      -1.79192172       3.45929010       0.00000000
Si       0.94914228       2.18891988      -3.19139562       0.00000000
