10
Lattice="16.290000149 0.0 0.0 0.0 16.290000149 0.0 0.0 0.0 29.1751946751" Properties=species:S:1:pos:R:3:initial_magmoms:R:1 pbc="T T T"
Si       1.61186293      -0.17399349      -1.67961596       0.00000000
Si      -0.43675119       2.28863262      -0.30318862       0.00000000
Si       0.24801525      -0.51450336       2.29801543       0.00000000
Si      -1.89944660      -1.29823156      -0.62925060       0.00000000
H        1.33165864      -2.22332438       1.51565136       0.00000000
H       -2.78207139      -0.44857773      -1.52037774       0.00000000
Si      -1.49832163       1.02783385       2.74900354       0.00000000
Si       0.04825098      -0.95246002      -3.27167716       0.00000000
Si      -2.33210900       2.27230841       1.03566106       0.00000000
Si      -0.86747509      -2.78526423      -2.09781320       0.00000000
