10
Lattice="16.290000149 0.0 0.0 0.0 16.290000149 0.0 0.0 0.0 29.1751946751" Properties=species:S:1:pos:R:3:initial_magmoms:R:1 pbc="T T T"
Si       1.32270892      -1.36304947       1.37543538       0.00000000
Si      -1.37028875      -1.36928854      -1.32280333       0.00000000
Si      -1.36183424       1.35161389       1.35089904       0.00000000
Si       1.36405294       1.36502056      -1.34663946       0.00000000
Si      -2.69513817       0.01516599      -2.68131709       0.00000000
Si       0.01091430      -2.71721112      -2.66188641       0.00000000
Si       2.67515360       0.00596214       2.71008383       0.00000000
Si      -0.01961316       2.71285517       2.70526993       0.00000000
Si       2.72752595       0.00983916      -2.69552541       0.00000000
Si      -2.70009033       2.72743473      -0.00037928       0.00000000
