10
Lattice="16.290000149 0.0 0.0 0.0 16.290000149 0.0 0.0 0.0 29.1751946751" Properties=species:S:1:pos:R:3:initial_magmoms:R:1 pbc="T T T"
Si      -0.68222521       2.04946447       0.77127545       0.00000000
Si       2.05605866      -0.61246002       0.89074787       0.00000000
Si      -1.24022287      -1.78743330       0.84818126       0.00000000
Si      -0.64625689      -0.68811241      -2.14148846       0.00000000
Si      -0.67756627      -2.82741949      -1.15889708       0.00000000
H        0.66432250       2.19104086      -2.21180068       0.00000000
Si      -1.29674917       1.53329952       2.95322991       0.00000000
Si      -3.53405037       0.78146715      -0.75989712       0.00000000
Si       1.53844390      -1.86629319       2.82544255       0.00000000
Si       1.08361081       3.53639939       0.42890454       0.00000000
