10
Lattice="16.290000149 0.0 0.0 0.0 16.290000149 0.0 0.0 0.0 29.1751946751" Properties=species:S:1:pos:R:3:initial_magmoms:R:1 pbc="T T T"
Si       1.36840888       1.34887717       1.33730340       0.00000000
Si       1.44321256      -1.33153647      -1.28195805       0.00000000
Si      -1.34920297      -1.38852052       1.33459011       0.00000000
Si      -1.37725435       1.34019460      -1.35825119       0.00000000
Si       0.11824911      -2.66766720      -2.61917101       0.00000000
Si       0.03358998       2.74455552      -2.61587713       0.00000000
Si       0.00379557       2.69570180       2.68817326       0.00000000
Si       2.69325830      -0.03557736       2.69581716       0.00000000
Si      -2.71220357      -0.02660157       2.67947905       0.00000000
Si      -2.79683013      -0.08897598      -2.59375650       0.00000000
