10
Lattice="16.290000149 0.0 0.0 0.0 16.290000149 0.0 0.0 0.0 29.1751946751" Properties=species:S:1:pos:R:3:initial_magmoms:R:1 pbc="T T T"
Si       1.08475111      -1.41721372      -1.49852552       0.00000000
Si      -1.54579069       1.31949001      -1.18988114       0.00000000
Si      -1.05308335      -1.76358800       1.18121611       0.00000000
Si       2.12659436       0.97129126       0.67981121       0.00000000
Si       0.21918195       0.80726725       3.39117875       0.00000000
Si       2.38047401      -2.70484049      -0.06628604       0.00000000
Si      -0.20341323       2.69674436      -2.50527397       0.00000000
Si      -1.40009293      -0.88029532       3.31716128       0.00000000
Si       2.49922811      -0.09120771      -2.73867552       0.00000000
Si       0.55060201      -3.53949123       1.09010197       0.00000000
