10
Lattice="16.290000149 0.0 0.0 0.0 16.290000149 0.0 0.0 0.0 29.1751946751" Properties=species:S:1:pos:R:3:initial_magmoms:R:1 pbc="T T T"
Si       1.14823324       0.12909825      -2.05851421       0.00000000
Si      -0.91572607      -1.83280421       1.17386396       0.00000000
Si       1.56361195       0.77846653       1.59206120       0.00000000
Si      -1.93280852       1.49214772      -0.31905993       0.00000000
Si      -1.94769758      -0.34577154       2.64242656       0.00000000
H       -2.83032237       0.50388228       1.75129941       0.00000000
H        1.85940578      -2.84210004      -0.12942116       0.00000000
Si      -0.04825098       0.95246002       3.27167716       0.00000000
Si       2.39813237       2.70785903       0.57343845       0.00000000
Si       2.67449222       1.97268644      -1.63401513       0.00000000
