10
Lattice="16.290000149 0.0 0.0 0.0 16.290000149 0.0 0.0 0.0 29.1751946751" Properties=species:S:1:pos:R:3:initial_magmoms:R:1 pbc="T T T"
Si       1.31219209       1.35995437       1.34514861       0.00000000
Si      -1.37523439       1.26425062      -1.41701587       0.00000000
Si       1.28702404      -1.44920728      -1.32788273       0.00000000
Si      -1.42719949      -1.39082392       1.28081730       0.00000000
Si      -2.18457047      -0.59515516      -2.59841169       0.00000000
Si      -0.55153054      -2.33048000      -2.51469172       0.00000000
Si       2.62088183       2.64932417      -0.12526953       0.00000000
Si       2.62922231      -0.03140712       2.68679911       0.00000000
Si      -0.10679724       2.69057045       2.64679992       0.00000000
Si       2.53669511      -2.81950581       0.08507779       0.00000000
