10
Lattice="16.290000149 0.0 0.0 0.0 16.290000149 0.0 0.0 0.0 29.1751946751" Properties=species:S:1:pos:R:3:initial_magmoms:R:1 pbc="T T T"
Si      -1.33797916       1.15414651       1.55662792       0.00000000
Si      -1.30909699      -1.44648685      -1.36922981       0.00000000
Si       1.42736239      -1.36676359       1.33452884       0.00000000
Si       0.83417833       1.99795223      -1.09072136       0.00000000
H        1.91782172       0.28913121      -1.87308543       0.00000000
Si      -0.91215856       3.54028944      -0.63973325       0.00000000
Si      -2.74431117       2.51814080       0.30266055       0.00000000
Si      -2.70733286      -0.02107926      -2.59359603       0.00000000
Si       0.08434962       2.61381197       2.78117503       0.00000000
Si      -2.63539622      -2.82900288       0.00635727       0.00000000
