10
Lattice="16.290000149 0.0 0.0 0.0 16.290000149 0.0 0.0 0.0 29.1751946751" Properties=species:S:1:pos:R:3:initial_magmoms:R:1 pbc="T T T"
Si      -1.34148151       1.35519769       1.34355272       0.00000000
Si       1.39823587      -1.42540759       1.22436622       0.00000000
Si       1.39404934       1.23530329      -1.42439135       0.00000000
Si      -1.50584761      -1.28583487      -1.28277496       0.00000000
H        0.51142455       2.08495712      -2.31551850       0.00000000
Si       2.70733286       0.02107926       2.59359603       0.00000000
Si      -2.55627569       2.76982131      -0.10678121       0.00000000
Si      -2.66255165      -0.04808808       2.68619227       0.00000000
Si       2.42602085      -0.25172937      -2.89295395       0.00000000
Si       0.07193664      -2.80792362       2.59995331       0.00000000
