10
Lattice="16.290000149 0.0 0.0 0.0 16.290000149 0.0 0.0 0.0 29.1751946751" Properties=species:S:1:pos:R:3:initial_magmoms:R:1 pbc="T T T"
Si       1.36251190      -1.33683886       1.36650777       0.00000000
Si      -1.35622396       1.35177679       1.36326932       0.00000000
Si       1.35511624       1.37288863      -1.34383864       0.00000000
Si      -1.33630129      -1.40341609      -1.33698247       0.00000000
Si       2.70611111      -2.66792735      -0.01998501       0.00000000
Si      -2.76936519      -0.08267175      -2.61870712       0.00000000
Si       0.00979029      -2.72769536       2.69272459       0.00000000
Si       0.00876402       2.71756298      -2.70912105       0.00000000
Si      -2.72536589       2.70264134       0.02532407       0.00000000
Si       0.00376299       2.71068860       2.71880722       0.00000000
