10
Lattice="16.290000149 0.0 0.0 0.0 16.290000149 0.0 0.0 0.0 29.1751946751" Properties=species:S:1:pos:R:3:initial_magmoms:R:1 pbc="T T T"
Si      -1.37857384       1.34897491       1.32011921       0.00000000
Si      -1.37033110      -1.36260964      -1.32639188       0.00000000
Si       1.35272161       1.39085650      -1.32621682       0.00000000
Si       1.35620767      -1.33089301       1.38617185       0.00000000
Si       0.04349430       2.65544921       2.63621224       0.00000000
Si       0.01537776      -2.67709862      -2.68411791       0.00000000
Si       2.70448211      -2.67887423       0.02126872       0.00000000
Si      -2.72596862       0.00741195      -2.66556249       0.00000000
Si      -2.72697860      -0.00951336       2.67247701       0.00000000
Si       2.69632082       0.05976801      -2.71270960       0.00000000
