10
Lattice="16.290000149 0.0 0.0 0.0 16.290000149 0.0 0.0 0.0 29.1751946751" Properties=species:S:1:pos:R:3:initial_magmoms:R:1 pbc="T T T"
Si      -1.42623675       1.21670011      -1.38453804       0.00000000
Si       1.14173353      -1.42941493      -1.46304849       0.00000000
Si      -1.47317802      -1.20635596       1.38958535       0.00000000
Si       1.50568471       1.34133490       1.29981327       0.00000000
H        0.03407868      -2.67675653       0.75225322       0.00000000
H       -2.60251975      -0.23719869       1.69484541       0.00000000
H        2.05612382      -2.31573755      -0.64952736       0.00000000
Si      -0.18502182      -1.04873392       3.41294345       0.00000000
Si      -0.06050106       2.64308510      -2.68697708       0.00000000
Si      -2.85738006       2.46467702      -0.01210771       0.00000000
