10
Lattice="16.290000149 0.0 0.0 0.0 16.290000149 0.0 0.0 0.0 29.1751946751" Properties=species:S:1:pos:R:3:initial_magmoms:R:1 pbc="T T T"
Si       0.61452397       0.51616494      -2.18195446       0.00000000
Si      -2.30079962      -0.06164136       0.45192377       0.00000000
Si       0.77183650       2.04691997       0.87595604       0.00000000
Si       1.22028391      -1.87104010       0.95108217       0.00000000
Si       1.69696190       1.00300789       2.71165929       0.00000000
Si       3.03015180      -0.54416745       1.55532963       0.00000000
Si       1.29674917      -1.53329952      -2.95322991       0.00000000
Si      -0.24187392      -0.02515176       3.61425229       0.00000000
Si      -2.44587836       0.35562699       2.81047568       0.00000000
Si      -3.15996681       2.01655541      -0.33954092       0.00000000
