10
Lattice="16.290000149 0.0 0.0 0.0 16.290000149 0.0 0.0 0.0 29.1751946751" Properties=species:S:1:pos:R:3:initial_magmoms:R:1 pbc="T T T"
Si       1.38961846       1.34539111       1.27495601       0.00000000
Si       1.25825590      -1.40110291      -1.36418251       0.00000000
Si      -1.31486365       1.26356644      -1.47237580       0.00000000
Si      -1.41084433      -1.40436091       1.25762594       0.00000000
Si      -2.17215749      -0.67326571      -2.51203094       0.00000000
Si      -0.46677366      -2.34129656      -2.63986556       0.00000000
Si      -0.03469770       2.70545951       2.54594419       0.00000000
Si       2.71883898      -0.06421518       2.58463050       0.00000000
Si       2.57979845      -0.07542270      -2.72905150       0.00000000
Si       2.68579748       2.65960316      -0.19333235       0.00000000
