10
Lattice="16.290000149 0.0 0.0 0.0 16.290000149 0.0 0.0 0.0 29.1751946751" Properties=species:S:1:pos:R:3:initial_magmoms:R:1 pbc="T T T"
Si      -1.25284762       1.10648034      -1.60443148       0.00000000
Si      -1.89535781      -0.01632421       1.33884968       0.00000000
Si       1.57390723       1.68606226       0.44308368       0.00000000
Si       0.43675119      -2.28863262       0.30318862       0.00000000
H        1.83635543       0.57958354      -2.37453992       0.00000000
H       -2.07420572       1.37119284       1.94942816       0.00000000
Si      -1.06157044      -1.26079877       3.05219217       0.00000000
Si       2.04861413      -2.46262611      -1.37642733       0.00000000
Si       0.84380572       2.32070437       2.62223090       0.00000000
Si      -2.58603752       2.65365569      -0.44810182       0.00000000
