10
Lattice="16.290000149 0.0 0.0 0.0 16.290000149 0.0 0.0 0.0 29.1751946751" Properties=species:S:1:pos:R:3:initial_magmoms:R:1 pbc="T T T"
Si       1.37938834       1.34167699       1.33263537       0.00000000
Si       1.37842723      -1.36764325      -1.31031634       0.00000000
Si      -1.34949619       1.37678194      -1.34144628       0.00000000
Si      -1.38038203      -1.35153244       1.33581546       0.00000000
Si      -0.05470182       2.65872350       2.62037011       0.00000000
Si       0.00022806      -2.70288569      -2.65441756       0.00000000
Si      -0.03342708      -2.68939757       2.70159385       0.00000000
Si      -2.71419095       0.02117700      -2.68823161       0.00000000
Si       2.73603585      -0.01141929      -2.66623352       0.00000000
Si       0.01075140       2.73843048      -2.68473059       0.00000000
