10
Lattice="16.290000149 0.0 0.0 0.0 16.290000149 0.0 0.0 0.0 29.1751946751" Properties=species:S:1:pos:R:3:initial_magmoms:R:1 pbc="T T T"
H       -1.12934173       0.96915727       0.30526006       0.00000000
H        1.50725670      -1.47040057      -0.63733213       0.00000000
Si       1.47317802       1.20635596      -1.38958535       0.00000000
Si       1.28815620       0.15762204       2.02335810       0.00000000
Si      -1.31614942      -1.70171858      -1.13821187       0.00000000
H       -2.29474789      -0.83513944       2.21734397       0.00000000
Si       2.11604658      -2.77585349      -0.19168103       0.00000000
Si       0.04694126       2.42305607      -2.77412339       0.00000000
Si      -2.59417438      -0.35152191      -2.63860461       0.00000000
Si       0.74859881       2.53697204       2.76064445       0.00000000
