10
Lattice="16.290000149 0.0 0.0 0.0 16.290000149 0.0 0.0 0.0 29.1751946751" Properties=species:S:1:pos:R:3:initial_magmoms:R:1 pbc="T T T"
Si       1.26804831      -1.36432009      -1.42433300       0.00000000
Si       1.35564941       1.41317380       1.31151253       0.00000000
Si      -1.38472120       1.34729704      -1.36201479       0.00000000
Si      -1.28546623      -1.36140418       1.44703131       0.00000000
Si       2.61382224      -2.70285311      -0.04846000       0.00000000
Si      -0.07549389       2.66115071       2.68394286       0.00000000
Si      -2.72677286      -2.63244773       0.05359483       0.00000000
Si       2.60598675       0.00485442      -2.79086995       0.00000000
Si      -0.03752533       2.70117524      -2.75291302       0.00000000
Si      -2.72413388       2.75928168      -0.03337642       0.00000000
