10
Lattice="16.290000149 0.0 0.0 0.0 16.290000149 0.0 0.0 0.0 29.1751946751" Properties=species:S:1:pos:R:3:initial_magmoms:R:1 pbc="T T T"
Si       1.41705082      -1.34295299       1.25434373       0.00000000
Si      -1.49802841       1.23573823       1.27975824       0.00000000
Si      -1.03975813      -1.85352997      -0.95226668       0.00000000
Si       0.86561803       1.72797317      -1.38222795       0.00000000
H       -2.05239341       0.77846164      -2.05503069       0.00000000
Si      -1.87354550      -0.60905541      -2.66560917       0.00000000
Si      -0.07845264       2.66490882       2.51526355       0.00000000
Si       2.64868886      -2.54404679      -0.34157151       0.00000000
Si      -0.83976580       3.39600402      -1.25439333       0.00000000
Si      -0.04324995      -2.78000744       2.46864159       0.00000000
