10
Lattice="16.290000149 0.0 0.0 0.0 16.290000149 0.0 0.0 0.0 29.1751946751" Properties=species:S:1:pos:R:3:initial_magmoms:R:1 pbc="T T T"
Si       1.38823218      -1.34951248       1.33012630       0.00000000
Si       1.37537937       1.34772058      -1.35107409       0.00000000
Si      -1.31403845      -1.36614457      -1.39431173       0.00000000
Si      -1.37090288       1.33942897       1.37937403       0.00000000
Si      -2.66168991      -2.71976213      -0.03676075       0.00000000
Si       0.02788848      -2.69961140       2.68370946       0.00000000
Si      -2.70129090       2.70568269       0.00595174       0.00000000
Si       0.03038574       2.70856439      -2.70725384       0.00000000
Si      -2.68179177      -0.00982287      -2.73607893       0.00000000
Si       2.70672851      -2.71178003      -0.06080111       0.00000000
