10
Lattice="16.290000149 0.0 0.0 0.0 16.290000149 0.0 0.0 0.0 29.1751946751" Properties=species:S:1:pos:R:3:initial_magmoms:R:1 pbc="T T T"
Si       1.31999500       1.34110684       1.39416002       0.00000000
Si      -1.35882222       1.33954300      -1.38041267       0.00000000
Si       1.41924997      -1.38196216      -1.28381068       0.00000000
Si      -1.37420161      -1.36104580       1.36136710       0.00000000
Si       0.03163518      -2.65675241      -2.66135251       0.00000000
Si       2.67617009       2.65548179      -0.00444922       0.00000000
Si       0.12988017       2.53933409      -2.81421594       0.00000000
Si       2.62218503      -2.77923693       0.15729806       0.00000000
Si      -2.86518297      -0.04595409      -2.54723752       0.00000000
Si       2.67255371      -0.02653641       2.74949369       0.00000000
