10
Lattice="16.290000149 0.0 0.0 0.0 16.290000149 0.0 0.0 0.0 29.1751946751" Properties=species:S:1:pos:R:3:initial_magmoms:R:1 pbc="T T T"
Si      -1.35477415       1.40973661      -1.31238778       0.00000000
Si       1.17257050       1.46787562       1.44955204       0.00000000
Si      -1.48870239      -1.19979109       1.43380327       0.00000000
Si       1.00773199      -1.24027174      -1.84267612       0.00000000
Si      -2.46157215      -0.29905182      -2.55685571       0.00000000
Si      -1.04834296      -2.24885081      -2.56534569       0.00000000
Si       2.40018491       0.49829481      -2.75810620       0.00000000
Si      -0.12988017      -2.53933409       2.81421594       0.00000000
Si       2.54628992       0.11614770       2.80976672       0.00000000
Si       2.47169801       2.95213899       0.17558245       0.00000000
