10
Lattice="16.290000149 0.0 0.0 0.0 16.290000149 0.0 0.0 0.0 29.1751946751" Properties=species:S:1:pos:R:3:initial_magmoms:R:1 pbc="T T T"
Si      -1.36596538      -1.34937239       1.34652276       0.00000000
Si      -1.36280512       1.36695907      -1.33429835       0.00000000
Si       1.36018243       1.34275213       1.36318180       0.00000000
Si       1.36300060      -1.36191895      -1.34488895       0.00000000
Si       0.00514764      -2.70759350       2.67446092       0.00000000
Si       2.71220357       0.02660157      -2.67947905       0.00000000
Si       0.00790065       2.72572427      -2.67151423       0.00000000
Si      -0.00333945       2.69285105       2.71332228       0.00000000
Si      -2.74861173       0.01682757      -2.65885219       0.00000000
Si       0.01591533      -2.74901898      -2.68391368       0.00000000
