10
Lattice="16.290000149 0.0 0.0 0.0 16.290000149 0.0 0.0 0.0 29.1751946751" Properties=species:S:1:pos:R:3:initial_magmoms:R:1 pbc="T T T"
Si      -1.36352188       1.35009892       1.35014048       0.00000000
Si      -1.36018243      -1.34275213      -1.36318180       0.00000000
Si       1.32320413      -1.36493911       1.39314472       0.00000000
Si       1.35581671       1.37955124      -1.35448759       0.00000000
Si       0.01242927       2.71393031       2.67743679       0.00000000
Si       2.69480585      -2.70253220       0.02727881       0.00000000
Si       2.70176168       0.01953171       2.70010592       0.00000000
Si       0.00281817      -2.70467108      -2.70807074       0.00000000
Si      -2.72614781      -2.69212452      -0.01665904       0.00000000
Si      -2.72298755       0.02420694      -2.69748015       0.00000000
