10
Lattice="16.290000149 0.0 0.0 0.0 16.290000149 0.0 0.0 0.0 29.1751946751" Properties=species:S:1:pos:R:3:initial_magmoms:R:1 pbc="T T T"
Si       1.35944938       1.35495334       1.35343728       0.00000000
Si      -1.33378449      -1.35729910       1.38019093       0.00000000
Si       1.37862271      -1.35971002      -1.33534866       0.00000000
Si      -1.36948891       1.34873056      -1.36286087       0.00000000
Si      -2.66751473      -2.73556343       0.03693580       0.00000000
Si       2.71489142       2.69819417      -0.02214397       0.00000000
Si      -0.00917127       2.70764237       2.70620353       0.00000000
Si      -0.02355534       2.67761990      -2.74373742       0.00000000
Si       2.70847316      -0.00589698       2.71676495       0.00000000
Si      -2.71915940       0.00319284       2.70626188       0.00000000
