10
Lattice="16.290000149 0.0 0.0 0.0 16.290000149 0.0 0.0 0.0 29.1751946751" Properties=species:S:1:pos:R:3:initial_magmoms:R:1 pbc="T T T"
Si       2.23265855      -0.50274198       0.32480744       0.00000000
Si      -1.04780539       0.67477742       2.06890058       0.00000000
Si      -0.06116895       2.06615846      -1.28327094       0.00000000
Si      -0.64513288      -1.77132575      -1.58937708       0.00000000
Si      -2.36537318       1.98154331      -0.92998851       0.00000000
H       -0.65339191      -2.90988273       1.53639493       0.00000000
Si       2.79531516      -1.54272817      -1.68227090       0.00000000
Si      -3.11730330       1.39783188       1.22430787       0.00000000
Si       3.47288142       1.28469131      -0.52337382       0.00000000
Si       1.17604027      -3.23029074      -1.75628837       0.00000000
