10
Lattice="16.290000149 0.0 0.0 0.0 16.290000149 0.0 0.0 0.0 29.1751946751" Properties=species:S:1:pos:R:3:initial_magmoms:R:1 pbc="T T T"
Si      -1.44559090       1.19319364       1.35723823       0.00000000
Si      -1.35817876      -1.34548885      -1.34132958       0.00000000
Si       1.27804825      -1.49521024       1.33879746       0.00000000
Si       1.31072599       1.36607941      -1.48647617       0.00000000
Si       2.16064046      -0.50885073      -2.60134788       0.00000000
Si       0.36261540      -2.10427706      -2.72044103       0.00000000
Si      -0.01905930       2.55261044       2.63648065       0.00000000
Si      -2.80318160       2.43555050      -0.09907896       0.00000000
Si       2.69161301      -0.19947105       2.68167011       0.00000000
Si      -2.79080445      -0.26837775       2.59147208       0.00000000
