10
Lattice="16.290000149 0.0 0.0 0.0 16.290000149 0.0 0.0 0.0 29.1751946751" Properties=species:S:1:pos:R:3:initial_magmoms:R:1 pbc="T T T"
Si       0.15341922      -0.79518007      -1.27632724       0.00000000
H       -1.39838248       2.03048336      -0.45554149       0.00000000
Si       0.91712701      -0.16203663       2.54022585       0.00000000
H       -1.29575548      -2.67413384       0.43494380       0.00000000
Si      -2.05600979      -0.71470747      -2.08159179       0.00000000
Si       1.01258641      -2.87337684      -0.48486256       0.00000000
Si      -0.80044174       1.46921140       2.64636521       0.00000000
Si       2.78733306       0.73334323       1.26398613       0.00000000
Si       0.86750767      -2.45610848       1.87368935       0.00000000
Si       1.23259915       0.37222650      -2.98316366       0.00000000
