10
Lattice="16.290000149 0.0 0.0 0.0 16.290000149 0.0 0.0 0.0 29.1751946751" Properties=species:S:1:pos:R:3:initial_magmoms:R:1 pbc="T T T"
Si       0.17884791      -1.38751705      -0.61057847       0.00000000
Si      -0.69530608       1.82757512       1.92182842       0.00000000
Si      -0.51183180       1.28246284      -2.39752997       0.00000000
Si      -2.53386065       0.94630240       0.73501943       0.00000000
Si      -2.45066762       0.25430319      -1.49493698       0.00000000
Si       1.21262761       2.61754238       0.80063736       0.00000000
Si       2.05239341      -0.77846164       2.05503069       0.00000000
Si       1.01263528      -2.63199161       1.10276401       0.00000000
Si       2.91801144       0.94951153       0.67280275       0.00000000
Si       2.07420572      -1.37119284      -1.94942816       0.00000000
