10
Lattice="16.290000149 0.0 0.0 0.0 16.290000149 0.0 0.0 0.0 29.1751946751" Properties=species:S:1:pos:R:3:initial_magmoms:R:1 pbc="T T T"
Si       1.34399017       1.36502056       1.34652276       0.00000000
Si      -1.34144079       1.35987292      -1.35997252       0.00000000
Si       1.36347301      -1.35518140      -1.34888595       0.00000000
Si      -1.36405294      -1.36502056       1.34663946       0.00000000
Si       2.67739184      -0.02712285       2.68245492       0.00000000
Si      -0.02935458      -2.69827562      -2.67717421       0.00000000
Si      -2.67517103      -0.01839141      -2.70322766       0.00000000
Si      -0.03570768       2.71458191       2.68887347       0.00000000
Si       2.70081686       2.71127504      -0.02339851       0.00000000
Si       2.69182478      -2.72702747       0.02278583       0.00000000
