10
Lattice="16.290000149 0.0 0.0 0.0 16.290000149 0.0 0.0 0.0 29.1751946751" Properties=species:S:1:pos:R:3:initial_magmoms:R:1 pbc="T T T"
H       -1.13252968       0.06123411       1.00356835       0.00000000
Si       0.22488345      -2.13465791      -0.90886566       0.00000000
Si       2.06060357       0.69696766       0.90396423       0.00000000
Si      -0.22402008       1.50943141      -1.84002118       0.00000000
H       -0.45470277       0.98376940       2.62179969       0.00000000
H       -2.05345226       1.82983943       1.45266212       0.00000000
Si       2.33973272      -1.52246341      -1.90951649       0.00000000
H        2.43908543      -2.34931124       0.70907393       0.00000000
Si       3.32218263       0.45898704      -1.03064293       0.00000000
Si       1.72276526       2.81786052       1.83430284       0.00000000
