10
Lattice="16.290000149 0.0 0.0 0.0 16.290000149 0.0 0.0 0.0 29.1751946751" Properties=species:S:1:pos:R:3:initial_magmoms:R:1 pbc="T T T"
Si       0.96954823      -1.45637488      -1.50952457       0.00000000
Si      -1.68767660       0.92836711      -1.31405077       0.00000000
Si      -1.26398998      -1.48393756       1.32528322       0.00000000
Si       1.50584761       1.28583487       1.28277496       0.00000000
H       -1.15118173       1.18470655      -2.69963911       0.00000000
Si      -0.92620054      -2.95640697      -1.83056841       0.00000000
Si      -2.64178190      -2.51183657      -0.30759408       0.00000000
Si      -2.57026880      -0.05799240       2.62609457       0.00000000
H        0.11596851       2.94648636      -2.27207664       0.00000000
Si       0.16436610       2.64103256       2.62632768       0.00000000
