10
Lattice="16.290000149 0.0 0.0 0.0 16.290000149 0.0 0.0 0.0 29.1751946751" Properties=species:S:1:pos:R:3:initial_magmoms:R:1 pbc="T T T"
Si       1.46024832       1.17880957      -1.41541706       0.00000000
Si      -1.39551544      -1.32159142      -1.36471058       0.00000000
Si      -1.33037173       1.44026407       1.31369483       0.00000000
Si       1.38805462      -1.36028017       1.35600470       0.00000000
Si       0.14278185      -2.59310738      -2.56138954       0.00000000
Si       0.05809014       2.35229231      -2.87298062       0.00000000
H       -0.83991241       3.09615888      -1.89391943       0.00000000
Si      -2.67169034       0.02129103       2.67281544       0.00000000
Si       2.67996404       2.66895362      -0.01843581       0.00000000
Si      -2.61260651      -2.75631690       0.07696125       0.00000000
