10
Lattice="16.290000149 0.0 0.0 0.0 16.290000149 0.0 0.0 0.0 29.1751946751" Properties=species:S:1:pos:R:3:initial_magmoms:R:1 pbc="T T T"
Si       1.40818906      -1.18107388      -1.46970043       0.00000000
Si      -1.31608377      -1.42688998       1.34614348       0.00000000
Si      -1.84034811       1.17496187      -0.93214747       0.00000000
Si       1.44676378       1.44128383       1.27492683       0.00000000
H        0.80586631       2.59659344      -1.44566007       0.00000000
Si      -0.47563542       2.55785582      -2.26487036       0.00000000
Si      -2.77211820       1.98983981       1.06241471       0.00000000
Si      -2.48716732       0.16441839       2.63244864       0.00000000
Si      -0.13255173      -2.49318452      -2.65961075       0.00000000
Si       2.79782382      -2.49636107      -0.04125373       0.00000000
