10
Lattice="16.290000149 0.0 0.0 0.0 16.290000149 0.0 0.0 0.0 29.1751946751" Properties=species:S:1:pos:R:3:initial_magmoms:R:1 pbc="T T T"
H       -0.64106038       0.43927614       0.03568126       0.00000000
Si       1.98834113       0.62662744       1.13908713       0.00000000
H       -1.79276339      -1.21360501       1.11084554       0.00000000
Si       0.76919752      -0.49230009      -2.38408021       0.00000000
Si       0.20188197       2.16842708       1.75234972       0.00000000
Si      -2.51012612      -1.29634192      -0.21601314       0.00000000
Si      -0.89792110      -2.07803387      -1.74692313       0.00000000
Si       2.65243556       0.31633551      -1.16598666       0.00000000
Si      -0.74041309       1.26612397      -2.58290916       0.00000000
Si       1.22870584      -1.25995006       2.39860945       0.00000000
