10
Lattice="16.290000149 0.0 0.0 0.0 16.290000149 0.0 0.0 0.0 29.1751946751" Properties=species:S:1:pos:R:3:initial_magmoms:R:1 pbc="T T T"
Si      -1.67276473      -0.78403771       1.44215905       0.00000000
Si      -0.52282104       0.68496193      -2.22294561       0.00000000
Si       1.10679800       1.70878844       1.24446793       0.00000000
Si       1.41322919      -1.94979899      -0.00848998       0.00000000
H       -2.85491375      -1.32157513       0.38905122       0.00000000
Si       2.46157215       0.29905182       2.55685571       0.00000000
Si       0.90057148      -2.86280463      -2.10038062       0.00000000
Si       3.46930414      -0.94121992       0.71417959       0.00000000
Si      -0.53349099      -2.28623636       2.82383412       0.00000000
H        2.87136339      -0.37994796      -2.38772711       0.00000000
