10
Lattice="16.290000149 0.0 0.0 0.0 16.290000149 0.0 0.0 0.0 29.1751946751" Properties=species:S:1:pos:R:3:initial_magmoms:R:1 pbc="T T T"
Si       1.34148151      -1.35519769      -1.34355272       0.00000000
Si       1.30450321       1.18402237       1.55270386       0.00000000
Si      -1.32107014      -1.40328577       1.34263954       0.00000000
Si      -1.21479418       1.41462361      -1.45033394       0.00000000
Si      -0.16436610      -2.64103256      -2.62632768       0.00000000
Si       0.40249332       2.90214986      -2.38884160       0.00000000
Si      -2.70308117      -0.04688262       2.66655736       0.00000000
Si      -2.69650001       2.71345351      -0.11084240       0.00000000
Si      -2.73463490      -2.69902496      -0.00023311       0.00000000
Si      -0.01594791       2.67296996       2.76080783       0.00000000
