10
Lattice="16.290000149 0.0 0.0 0.0 16.290000149 0.0 0.0 0.0 29.1751946751" Properties=species:S:1:pos:R:3:initial_magmoms:R:1 pbc="T T T"
Si       1.25284762      -1.10648034       1.60443148       0.00000000
Si      -1.80986789      -1.32687264      -0.60424746       0.00000000
Si       1.21806847       1.31971807      -1.49835047       0.00000000
Si      -1.33318990       1.54717534       1.15632967       0.00000000
Si      -0.64251019      -1.12280455       2.94328116       0.00000000
H        3.08920305      -0.52689680      -0.77010844       0.00000000
Si      -0.19495872      -2.85542526      -1.68311698       0.00000000
Si       2.75103894       2.03853062       0.11573800       0.00000000
Si      -3.03015180       0.54416745      -1.55532963       0.00000000
Si      -2.54288531      -1.67130026       1.65747198       0.00000000
