10
Lattice="16.290000149 0.0 0.0 0.0 16.290000149 0.0 0.0 0.0 29.1751946751" Properties=species:S:1:pos:R:3:initial_magmoms:R:1 pbc="T T T"
Si      -1.36026388       1.35634614       1.33899556       0.00000000
Si       1.34949619       1.37486787      -1.33514443       0.00000000
Si       1.38150604      -1.36023945       1.32143209       0.00000000
Si      -1.35562123      -1.37126778      -1.33704082       0.00000000
Si       2.67985163      -0.04440491      -2.62121619       0.00000000
Si       0.00565263      -2.71485070       2.65570127       0.00000000
Si      -2.72536589      -0.00980169      -2.64998293       0.00000000
Si       0.01303200       2.70315448       2.68006256       0.00000000
Si       2.73214253       0.00866791       2.67023052       0.00000000
Si      -2.70389567       0.00276441       2.70702044       0.00000000
