10
Lattice="16.290000149 0.0 0.0 0.0 16.290000149 0.0 0.0 0.0 29.1751946751" Properties=species:S:1:pos:R:3:initial_magmoms:R:1 pbc="T T T"
Si       1.37855755       1.38447082       1.30696120       0.00000000
Si       1.37160172      -1.33759309      -1.36586591       0.00000000
Si      -1.32320413       1.36493911      -1.39314472       0.00000000
Si      -1.36630747      -1.38083327       1.35766768       0.00000000
Si      -2.67823892      -2.68540652      -0.08186560       0.00000000
Si       2.67804344       0.00698841       2.68989460       0.00000000
Si      -2.68672601       2.71503803      -0.04300424       0.00000000
Si       2.70198974      -2.70384680       0.00755638       0.00000000
Si      -2.69405651       0.00262269       2.71530619       0.00000000
Si       0.05675436       2.76255597       2.67271041       0.00000000
