10
Lattice="16.290000149 0.0 0.0 0.0 16.290000149 0.0 0.0 0.0 29.1751946751" Properties=species:S:1:pos:R:3:initial_magmoms:R:1 pbc="T T T"
Si       0.68222521      -2.04946447      -0.77127545       0.00000000
Si      -0.61452397      -0.51616494       2.18195446       0.00000000
Si      -1.82055413       0.88534522      -1.14652680       0.00000000
Si       1.76583602       1.48693492      -0.34237091       0.00000000
H        1.34654770       0.14157639      -2.98307613       0.00000000
Si       0.15731253       1.53075502       3.05791050       0.00000000
Si      -2.85182517      -1.26799732      -1.53117257       0.00000000
Si       2.14918859       2.12885867       1.88419242       0.00000000
Si      -0.69421465       2.31925619      -2.70156468       0.00000000
Si       0.79162885       3.34950096      -1.23769928       0.00000000
