10
Lattice="16.290000149 0.0 0.0 0.0 16.290000149 0.0 0.0 0.0 29.1751946751" Properties=species:S:1:pos:R:3:initial_magmoms:R:1 pbc="T T T"
Si       1.32154255       1.32568021      -1.36486900       0.00000000
Si      -1.25825590       1.40110291       1.36418251       0.00000000
Si      -1.72502957      -0.94019365      -1.27568305       0.00000000
Si       1.45030604      -1.38463372       1.22596794       0.00000000
Si      -3.43041339       0.72783721      -1.14784844       0.00000000
Si      -2.57311955       2.66466935      -0.10819329       0.00000000
Si      -2.59064759      -2.66816682       0.10654489       0.00000000
Si       2.58473921      -0.10137267      -2.69195728       0.00000000
Si      -2.66910023      -0.00325800       2.62180845       0.00000000
Si       2.81252391       0.01058850       2.54373563       0.00000000
