10
Lattice="16.290000149 0.0 0.0 0.0 16.290000149 0.0 0.0 0.0 29.1751946751" Properties=species:S:1:pos:R:3:initial_magmoms:R:1 pbc="T T T"
Si       1.34648254       1.34744365      -1.36866673       0.00000000
Si       1.35060391      -1.35912358       1.35968077       0.00000000
Si      -1.33013134       1.34912152       1.39133586       0.00000000
Si      -1.36412461      -1.32975271      -1.37925733       0.00000000
Si       2.67703346       2.69285105       0.04568835       0.00000000
Si      -2.70487307      -2.68288157       0.00592256       0.00000000
Si      -2.69788466       2.70544322       0.04956866       0.00000000
Si       2.69063561       0.00348606       2.72484648       0.00000000
Si       2.69838965      -0.02130732      -2.72741390       0.00000000
Si      -2.67778280      -0.00449604       2.74888684       0.00000000
