10
Lattice="16.290000149 0.0 0.0 0.0 16.290000149 0.0 0.0 0.0 29.1751946751" Properties=species:S:1:pos:R:3:initial_magmoms:R:1 pbc="T T T"
Si       1.34643367       1.33029354      -1.34618141       0.00000000
Si      -1.35607735       1.39489968       1.28901845       0.00000000
Si       1.36974466      -1.36146608       1.31294211       0.00000000
Si      -1.30122892      -1.32706160      -1.42507697       0.00000000
Si      -2.67986141       0.01094362       2.65094571       0.00000000
Si      -0.01712079      -2.72003581       2.61824032       0.00000000
Si       0.03675024       2.73799390       2.61730671       0.00000000
Si       2.72536589       0.00980169       2.64998293       0.00000000
Si      -2.58000045       0.04639718      -2.81195778       0.00000000
Si      -2.64995297       2.74848466      -0.14211237       0.00000000
