10
Lattice="16.290000149 0.0 0.0 0.0 16.290000149 0.0 0.0 0.0 29.1751946751" Properties=species:S:1:pos:R:3:initial_magmoms:R:1 pbc="T T T"
Si       1.36710568      -1.35876520       1.32627517       0.00000000
Si       1.36816453       1.34307793      -1.34363442       0.00000000
Si      -1.34003170      -1.36260964      -1.36516571       0.00000000
Si      -1.31849632       1.36226755       1.39092741       0.00000000
Si      -0.01360215       2.68936499      -2.67915813       0.00000000
Si      -0.00983916      -2.68651424       2.68213400       0.00000000
Si       2.71624349      -0.00008145       2.67521948       0.00000000
Si      -2.69942407      -2.71397918      -0.00303422       0.00000000
Si      -2.69063561      -0.00348606      -2.72484648       0.00000000
Si       2.71855667      -0.02063943      -2.69984334       0.00000000
