10
Lattice="16.290000149 0.0 0.0 0.0 16.290000149 0.0 0.0 0.0 29.1751946751" Properties=species:S:1:pos:R:3:initial_magmoms:R:1 pbc="T T T"
Si      -1.36070371      -1.01540458       1.62284103       0.00000000
Si      -1.32546844       1.25724592      -1.49695006       0.00000000
Si       1.22899906      -1.42767190      -1.42818413       0.00000000
Si       1.44130663       1.27104355       1.39343647       0.00000000
Si       0.08211789      -2.64298867       2.54533151       0.00000000
Si       0.00866628       2.51892272       2.75253374       0.00000000
Si      -1.46253250       0.71733016       3.41708633       0.00000000
Si       2.72677286       2.63244773      -0.05359483       0.00000000
Si       2.69774356      -2.72536166      -0.16165975       0.00000000
Si       2.61224813      -0.09184302      -2.81155516       0.00000000
