10
Lattice="16.290000149 0.0 0.0 0.0 16.290000149 0.0 0.0 0.0 29.1751946751" Properties=species:S:1:pos:R:3:initial_magmoms:R:1 pbc="T T T"
Si       1.35607735      -1.39489968      -1.28901845       0.00000000
Si       1.39282759       1.34309422       1.32828826       0.00000000
Si      -1.32378406      -1.38395606       1.36192726       0.00000000
Si      -1.29387562       1.35358498      -1.43113082       0.00000000
Si      -2.64581645       2.67988421      -0.02605345       0.00000000
Si       2.70251102      -0.06460614      -2.63519986       0.00000000
Si       0.02935458       2.69827562       2.67717421       0.00000000
Si      -2.65609348      -0.04163724      -2.74889851       0.00000000
Si      -2.70498710      -0.03603348       2.70101035       0.00000000
Si      -2.63809401      -2.76750813      -0.00142958       0.00000000
