10
Lattice="16.290000149 0.0 0.0 0.0 16.290000149 0.0 0.0 0.0 29.1751946751" Properties=species:S:1:pos:R:3:initial_magmoms:R:1 pbc="T T T"
Si      -1.46610653       1.21005379       1.33739092       0.00000000
Si       1.17600117       1.52730154      -1.31947735       0.00000000
Si      -0.22316974      -1.85192867      -1.43585721       0.00000000
Si       1.43747197      -1.18744327       1.44402626       0.00000000
H       -2.93903205      -1.25436259      -1.41540539       0.00000000
Si       2.08447819      -2.03260106      -2.03529076       0.00000000
Si      -2.61702762      -0.42699348       2.52228311       0.00000000
Si       2.53673747       0.17602974      -2.64505232       0.00000000
Si       3.15826613      -1.94623148       0.06491481       0.00000000
Si      -0.00753087       2.59359608       2.68627687       0.00000000
