10
Lattice="16.290000149 0.0 0.0 0.0 16.290000149 0.0 0.0 0.0 29.1751946751" Properties=species:S:1:pos:R:3:initial_magmoms:R:1 pbc="T T T"
Si      -1.35729910      -0.57557458      -0.27433436       0.00000000
H        0.92092258      -1.76860532      -0.44909377       0.00000000
H        1.59874948      -0.84607003       1.16913758       0.00000000
Si       1.06225462      -1.10240947       2.55472592       0.00000000
Si      -2.71803539       0.77569723       1.05124061       0.00000000
Si      -1.82060300      -0.15337035      -2.48642679       0.00000000
Si       2.05345226      -1.82983943      -1.45266212       0.00000000
Si      -1.17729460       2.08780787       2.24115093       0.00000000
Si       0.00825903       1.13855698      -3.12577201       0.00000000
Si      -1.80955838      -2.78420538       0.33542721       0.00000000
