10
Lattice="16.290000149 0.0 0.0 0.0 16.290000149 0.0 0.0 0.0 29.1751946751" Properties=species:S:1:pos:R:3:initial_magmoms:R:1 pbc="T T T"
Si       1.36332640       1.34837218      -1.35157007       0.00000000
Si       1.37352394      -1.35580042       1.34173803       0.00000000
Si      -1.35469270       1.36029646       1.35927232       0.00000000
Si      -1.36920709      -1.36127386      -1.35197852       0.00000000
Si      -0.00162900      -2.67273290       2.70789569       0.00000000
Si      -0.02572191       2.69842549      -2.68330100       0.00000000
Si       2.66553272      -2.72362286      -0.06768645       0.00000000
Si       2.72616410       2.68892679       0.02453634       0.00000000
Si       2.68382639      -0.01918962      -2.73462017       0.00000000
Si      -2.68945785       0.01006722       2.73009802       0.00000000
