10
Lattice="16.290000149 0.0 0.0 0.0 16.290000149 0.0 0.0 0.0 29.1751946751" Properties=species:S:1:pos:R:3:initial_magmoms:R:1 pbc="T T T"
Si       1.31875696       1.35176050      -1.38710546       0.00000000
Si      -1.38608353       1.47755188       1.21593459       0.00000000
Si       1.59790240      -1.30313485       1.21155831       0.00000000
Si      -1.50568471      -1.34133490      -1.29981327       0.00000000
Si      -1.69070654      -2.39006882       2.11313018       0.00000000
Si      -2.23026392      -0.01071882       2.85041652       0.00000000
Si       2.37174257      -0.12031794      -2.86369123       0.00000000
Si       3.47263707       0.16026102       1.36919189       0.00000000
Si       3.12750084       2.11053242       0.00294669       0.00000000
H        2.07396137       0.99948925       3.00204001       0.00000000
