10
Lattice="16.290000149 0.0 0.0 0.0 16.290000149 0.0 0.0 0.0 29.1751946751" Properties=species:S:1:pos:R:3:initial_magmoms:R:1 pbc="T T T"
Si      -1.34051226       1.35886294      -1.36070190       0.00000000
Si       1.34907265       1.38632788       1.32446631       0.00000000
Si       1.37969785      -1.34956135      -1.34235071       0.00000000
Si      -1.34795842      -1.36674730       1.36303592       0.00000000
Si       2.65743659      -0.04189788       2.62080774       0.00000000
Si      -2.66799251       2.70664868       0.03553539       0.00000000
Si       0.03570768      -2.71458191      -2.68887347       0.00000000
Si      -2.69110802       0.00578295      -2.72277504       0.00000000
Si      -2.69017949      -2.72798858       0.00866503       0.00000000
Si       0.01888011       2.71023248      -2.72283339       0.00000000
