10
Lattice="16.290000149 0.0 0.0 0.0 16.290000149 0.0 0.0 0.0 29.1751946751" Properties=species:S:1:pos:R:3:initial_magmoms:R:1 pbc="T T T"
Si       1.31770806      -1.33709950      -1.40685706       0.00000000
Si      -1.34654427       1.36360333      -1.37178848       0.00000000
Si       1.38811344       1.37671678       1.31693911       0.00000000
Si      -1.34719587      -1.35387820       1.39089823       0.00000000
Si       2.64351208      -2.69632082      -0.03795693       0.00000000
Si       0.00105606       2.71339274       2.63014380       0.00000000
Si      -2.69828848      -2.66989844      -0.02223150       0.00000000
Si      -2.68660855       0.05810643       2.71953660       0.00000000
Si       2.66566648       0.02964780      -2.76989298       0.00000000
Si      -2.72927206       2.70731657      -0.03603137       0.00000000
