10
Lattice="16.28999089631971 0.0 0.0 0.0 16.28999089631971 0.0 0.0 0.0 34.450931932916035" Properties=species:S:1:pos:R:3:initial_magmoms:R:1 pbc="T T T"
Si       1.35669636       1.35862835      -1.35681626       0.00000000
Si      -1.35633798      -1.35822134      -1.35778089       0.00000000
Si       1.35788553      -1.35729914       1.35757418       0.00000000
Si      -1.35775521       1.35809078       1.35764308       0.00000000
Si       0.00030951      -2.71417205      -2.71253009       0.00000000
Si       0.00148239       2.71405409      -2.71328801       0.00000000
Si       2.71487511      -2.71482365       0.00003445       0.00000000
Si      -2.71503801      -2.71472591       0.00013780       0.00000000
Si      -2.71498914       0.00258359       2.71483831       0.00000000
Si      -2.71510317       2.71496633       0.00027561       0.00000000
