10
Lattice="16.28999089631971 0.0 0.0 0.0 16.28999089631971 0.0 0.0 0.0 34.450931932916035" Properties=species:S:1:pos:R:3:initial_magmoms:R:1 pbc="T T T"
Si      -1.35632169       1.36047161      -1.36126043       0.00000000
Si       1.36024758      -1.35840173      -1.36150159       0.00000000
Si      -1.36550925      -1.35889043       1.36594576       0.00000000
Si       1.37670048       1.36662760       1.38361910       0.00000000
Si       0.09554085      -2.57547650       2.76951197       0.00000000
Si      -2.71300176       2.71539236      -0.00296278       0.00000000
Si       2.71353933       2.71557155      -0.00172255       0.00000000
Si       2.71578735      -2.71441391      -0.00509874       0.00000000
Si      -2.71344159       0.00073927      -2.71852456       0.00000000
Si      -2.71554300      -2.71658048      -0.00330729       0.00000000
