10
Lattice="16.28999089631971 0.0 0.0 0.0 16.28999089631971 0.0 0.0 0.0 34.450931932916035" Properties=species:S:1:pos:R:3:initial_magmoms:R:1 pbc="T T T"
Si      -1.42695513       1.23214302      -1.38771876       0.00000000
Si       1.30906440      -1.49118823      -1.37194023       0.00000000
Si      -1.87224228      -1.02861576       1.20988295       0.00000000
Si       1.11737997       1.69598448       1.45462251       0.00000000
Si       0.94607433      -0.22152771       3.09434998       0.00000000
Si      -0.44613423      -2.23875913       2.67063774       0.00000000
Si      -2.66481594       2.55524940       0.25404131       0.00000000
Si      -0.07076376       2.57180004      -2.75896997       0.00000000
Si       2.64590325      -0.14224428      -2.75728188       0.00000000
Si       2.78067042       2.72678310      -0.00134359       0.00000000
