10
Lattice="16.28999089631971 0.0 0.0 0.0 16.28999089631971 0.0 0.0 0.0 34.450931932916035" Properties=species:S:1:pos:R:3:initial_magmoms:R:1 pbc="T T T"
Si       1.70153937       0.52803872       1.58778375       0.00000000
Si       1.68948477       1.20107799      -1.57144569       0.00000000
Si      -0.98354133      -1.99012391       1.39577826       0.00000000
Si      -2.01743505       1.73470581       0.29290857       0.00000000
Si       0.39516282       1.97346834       2.92067727       0.00000000
Si      -1.94623146      -0.77150159      -2.96402204       0.00000000
Si       3.43593567       1.48569687       0.26968656       0.00000000
Si      -2.33383572      -0.76097013       2.92841151       0.00000000
Si      -0.93879270       3.39791481       1.51786554       0.00000000
Si      -2.13579819      -3.27103919      -0.31612193       0.00000000
