10
Lattice="16.28999089631971 0.0 0.0 0.0 16.28999089631971 0.0 0.0 0.0 34.450931932916035" Properties=species:S:1:pos:R:3:initial_magmoms:R:1 pbc="T T T"
Si       1.35738054      -1.35739683       1.35705742       0.00000000
Si      -1.35738054       1.35731538       1.35757418       0.00000000
Si      -1.35754344      -1.35938421      -1.35636840       0.00000000
Si       1.35738054       1.35842310      -1.35753973       0.00000000
Si      -0.00112401       2.71511946      -2.71149656       0.00000000
Si       2.71339272      -0.00068418       2.71328801       0.00000000
Si      -2.71345788       0.00079821       2.71542397       0.00000000
Si       0.00135207      -2.71438641       2.71459715       0.00000000
Si       0.00133578      -2.71622718      -2.71328801       0.00000000
Si       2.71516833       2.71484253       0.00020671       0.00000000
