10
Lattice="16.28999089631971 0.0 0.0 0.0 16.28999089631971 0.0 0.0 0.0 34.450931932916035" Properties=species:S:1:pos:R:3:initial_magmoms:R:1 pbc="T T T"
Si       2.07655146       0.99036684      -0.47084115       0.00000000
Si      -0.99973359       2.13537465      -0.13997421       0.00000000
Si      -1.61683137      -1.32527295      -1.13405641       0.00000000
Si       0.47822553      -1.41745806       1.89862637       0.00000000
Si      -0.83654037       2.44996713       2.14236685       0.00000000
Si       3.63547188      -0.64982439       0.19010035       0.00000000
Si      -0.91869084      -3.28971663       1.53978526       0.00000000
Si      -2.84534661      -2.38200525       0.56261848       0.00000000
Si       2.55285477      -2.53482174       1.21215672       0.00000000
Si      -3.21249714       1.91414016      -0.84111997       0.00000000
