10
Lattice="16.28999089631971 0.0 0.0 0.0 16.28999089631971 0.0 0.0 0.0 34.450931932916035" Properties=species:S:1:pos:R:3:initial_magmoms:R:1 pbc="T T T"
Si      -0.41837607      -0.23328909       2.28240997       0.00000000
Si      -1.00247031      -2.06368236      -0.48407032       0.00000000
Si      -0.98567532       1.70478108      -1.29087714       0.00000000
Si       2.31645429       0.09073530      -0.64251024       0.00000000
Si       0.57322881       3.38330268      -0.94119999       0.00000000
Si      -2.87841042      -0.33124086       2.06667811       0.00000000
Si      -0.63153072       2.03991525       2.91999372       0.00000000
Si       0.72909153      -3.66545200      -0.14765678       0.00000000
Si       2.61563643       2.36328804      -1.42509805       0.00000000
Si      -0.95920407       0.89120961      -3.57308040       0.00000000
