10
Lattice="16.28999089631971 0.0 0.0 0.0 16.28999089631971 0.0 0.0 0.0 34.450931932916035" Properties=species:S:1:pos:R:3:initial_magmoms:R:1 pbc="T T T"
Si      -1.35677781       1.35713619      -1.36160494       0.00000000
Si       1.36114353      -1.35821133      -1.36167385       0.00000000
Si       1.36130643       1.38049605       1.35836655       0.00000000
Si      -1.36868580      -1.36585134       1.38007065       0.00000000
Si       2.66494626      -0.01089801       2.74908255       0.00000000
Si      -2.71564074       2.71158453      -0.00378960       0.00000000
Si       2.71568961       2.71375110      -0.00558105       0.00000000
Si      -2.71480995      -2.71609686      -0.00020671       0.00000000
Si       0.00110772       2.71357191      -2.71907577       0.00000000
Si      -2.71399545      -0.00117288      -2.71886907       0.00000000
