10
Lattice="16.28999089631971 0.0 0.0 0.0 16.28999089631971 0.0 0.0 0.0 34.450931932916035" Properties=species:S:1:pos:R:3:initial_magmoms:R:1 pbc="T T T"
Si       1.35479043       1.35736425      -1.35753973       0.00000000
Si       1.35444834      -1.36036161       1.35795314       0.00000000
Si      -1.35980775      -1.35812988      -1.35733303       0.00000000
Si      -1.36114353       1.35821133       1.36167385       0.00000000
Si       0.01006722      -2.70314631       2.71893797       0.00000000
Si       2.71096551      -2.71612944      -0.00161919       0.00000000
Si       2.71274112      -0.00060273      -2.71470050       0.00000000
Si      -0.00213399       2.71407690      -2.71425264       0.00000000
Si      -0.00242721      -2.71544526      -2.71490721       0.00000000
Si       2.71355562       2.71696023      -0.00096463       0.00000000
