10
Lattice="16.28999089631971 0.0 0.0 0.0 16.28999089631971 0.0 0.0 0.0 34.450931932916035" Properties=species:S:1:pos:R:3:initial_magmoms:R:1 pbc="T T T"
Si       1.54095255      -1.88450865      -0.13325628       0.00000000
Si       0.72987345       1.88569782      -1.39491901       0.00000000
Si       0.89568936       0.90258003       2.14512293       0.00000000
Si      -2.01973194      -0.92326833      -1.23592787       0.00000000
Si      -0.66552795      -2.55621051       1.19472454       0.00000000
Si       1.99573677       0.41350536      -2.80558211       0.00000000
Si      -0.73425546      -2.33284203      -2.78387801       0.00000000
Si       3.29937660      -0.97788870      -1.41486611       0.00000000
Si       1.75386285      -2.43841752       2.24065541       0.00000000
Si       1.77315021       3.56314428      -0.01371148       0.00000000
