10
Lattice="16.28999089631971 0.0 0.0 0.0 16.28999089631971 0.0 0.0 0.0 34.450931932916035" Properties=species:S:1:pos:R:3:initial_magmoms:R:1 pbc="T T T"
Si       1.07023671      -0.81666657      -1.90165805       0.00000000
Si      -2.16257895      -0.85739157      -0.72911993       0.00000000
Si       0.72984087      -1.71631440       1.63893510       0.00000000
Si       0.20981520       2.47969638      -0.02852539       0.00000000
Si       0.49695903      -3.17288475      -1.85556268       0.00000000
Si       0.29271501      -3.76189857       0.42946556       0.00000000
Si      -0.63252441       3.20816889       2.09771842       0.00000000
Si       0.08788455       0.06633288      -3.88834106       0.00000000
Si      -2.78357004      -2.61689076       0.76033249       0.00000000
Si      -3.89700783       0.67230459      -0.17259927       0.00000000
