10
Lattice="16.28999089631971 0.0 0.0 0.0 16.28999089631971 0.0 0.0 0.0 34.450931932916035" Properties=species:S:1:pos:R:3:initial_magmoms:R:1 pbc="T T T"
Si      -0.20427660       2.02518909       1.16606134       0.00000000
Si      -2.23322868      -0.31161141      -0.73807718       0.00000000
Si       1.11698901       0.27437247      -2.14181564       0.00000000
Si       0.61397010      -1.68694353       1.65006276       0.00000000
Si       3.42195885       0.16079859      -1.46330415       0.00000000
Si      -0.94493403      -3.36546513       1.30038560       0.00000000
Si       1.19677743       1.83409110       3.03926291       0.00000000
Si      -2.48901426       2.04861411       1.91847012       0.00000000
Si       0.67986315      -1.77121170      -3.35128518       0.00000000
Si      -3.51347607       1.59866802      -0.14772568       0.00000000
