10
Lattice="16.28999089631971 0.0 0.0 0.0 16.28999089631971 0.0 0.0 0.0 34.450931932916035" Properties=species:S:1:pos:R:3:initial_magmoms:R:1 pbc="T T T"
Si      -0.69265080      -1.29642336       1.77746238       0.00000000
Si      -1.40105403       0.19109799      -1.87320157       0.00000000
Si      -0.52501041       2.15914176       0.82861428       0.00000000
Si       2.17992780      -0.79216641      -0.50508540       0.00000000
Si       3.36965166       0.13361058       1.35929673       0.00000000
Si      -0.47586348      -3.46159242       1.10067344       0.00000000
Si      -0.51805458       2.20804434      -2.88175316       0.00000000
Si      -1.19677743      -1.83409110      -3.03926291       0.00000000
Si      -2.60239266       1.73716560       2.08648741       0.00000000
Si       2.64855852      -0.05502762      -2.70612222       0.00000000
