10
Lattice="16.28999089631971 0.0 0.0 0.0 16.28999089631971 0.0 0.0 0.0 34.450931932916035" Properties=species:S:1:pos:R:3:initial_magmoms:R:1 pbc="T T T"
Si       1.35791811      -1.35570267       1.35984795       0.00000000
Si      -1.36070370       1.35975888       1.35967569       0.00000000
Si      -1.36257705      -1.34786718      -1.37393494       0.00000000
Si       1.33547049       1.38921120      -1.37081713       0.00000000
Si      -2.54434487       0.21338271      -2.79906744       0.00000000
Si       2.67136452       0.05530455      -2.74606465       0.00000000
Si       2.71174743      -2.71366965       0.00527100       0.00000000
Si       2.71303434       2.71674846       0.00423747       0.00000000
Si       2.71316466       0.00073305       2.71742213       0.00000000
Si      -0.00174303      -2.71339272       2.71728432       0.00000000
