10
Lattice="16.28999089631971 0.0 0.0 0.0 16.28999089631971 0.0 0.0 0.0 34.450931932916035" Properties=species:S:1:pos:R:3:initial_magmoms:R:1 pbc="T T T"
Si       1.34799750       1.33446362      -1.35922094       0.00000000
Si      -1.35664749       1.35595071       1.35474920       0.00000000
Si       1.35641943      -1.35777150       1.35468030       0.00000000
Si      -1.37756385      -1.32753726      -1.37505460       0.00000000
Si      -0.04419477       2.64296032      -2.70461326       0.00000000
Si      -0.04166982      -2.66144391      -2.75030212       0.00000000
Si      -0.00030951       2.71417205       2.71253009       0.00000000
Si       2.71456560      -0.00065160       2.71256454       0.00000000
Si      -2.71534752      -0.00055386       2.71266790       0.00000000
Si       0.00013032      -2.71601541       2.71318466       0.00000000
