10
Lattice="16.28999089631971 0.0 0.0 0.0 16.28999089631971 0.0 0.0 0.0 34.450931932916035" Properties=species:S:1:pos:R:3:initial_magmoms:R:1 pbc="T T T"
Si       1.35553977      -1.35601218       1.35640285       0.00000000
Si       1.35630540       1.35899061      -1.35702297       0.00000000
Si      -1.35904212      -1.35619137      -1.35709187       0.00000000
Si      -1.36024758       1.35840173       1.36150159       0.00000000
Si       0.00115659      -2.68926723       2.72035046       0.00000000
Si       2.71454931      -2.71101438      -0.00065457       0.00000000
Si      -0.00114030      -2.71389771      -2.71394258       0.00000000
Si       2.71329498       0.00146610      -2.71456270       0.00000000
Si      -2.71692765      -2.71262709       0.00037896       0.00000000
Si       2.71357191       2.71718733       0.00203261       0.00000000
