10
Lattice="16.28999089631971 0.0 0.0 0.0 16.28999089631971 0.0 0.0 0.0 34.450931932916035" Properties=species:S:1:pos:R:3:initial_magmoms:R:1 pbc="T T T"
Si       1.89131787      -1.27795050       0.05274441       0.00000000
Si       0.28009026       1.41200091       1.80543655       0.00000000
Si      -0.89202411       1.10734533      -1.88870450       0.00000000
Si      -1.76948496      -1.55321892       0.27012991       0.00000000
Si       2.04317325      -1.78033410       2.38297229       0.00000000
Si      -2.40933987       2.62443207      -0.61322693       0.00000000
Si       1.12247874       3.41470884       0.54050097       0.00000000
Si       2.19279690      -2.31528141      -1.95061286       0.00000000
Si       1.55724255       0.27360684       3.41346915       0.00000000
Si      -1.93530087      -0.57010113      -3.26991203       0.00000000
