10
Lattice="16.28999089631971 0.0 0.0 0.0 16.28999089631971 0.0 0.0 0.0 34.450931932916035" Properties=species:S:1:pos:R:3:initial_magmoms:R:1 pbc="T T T"
Si       0.16428465       1.96826368       1.36914970       0.00000000
Si      -0.84238848      -2.00270793       1.26493557       0.00000000
Si      -2.13961005       1.22695465      -0.73001566       0.00000000
Si       1.42128621      -0.49271874      -2.14281471       0.00000000
Si      -0.28877283       3.49820419      -0.44079992       0.00000000
Si      -1.12247874      -3.41470884      -0.54050097       0.00000000
Si       3.67952004       0.37347268      -0.55645176       0.00000000
Si       2.00424015      -1.21216985       2.91902909       0.00000000
Si      -3.53181861      -0.79027677      -1.15372790       0.00000000
Si      -2.62480770      -1.19749745       2.54241130       0.00000000
