10
Lattice="16.28999089631971 0.0 0.0 0.0 16.28999089631971 0.0 0.0 0.0 34.450931932916035" Properties=species:S:1:pos:R:3:initial_magmoms:R:1 pbc="T T T"
Si       1.58319252      -1.68759580      -0.20705022       0.00000000
Si      -1.42397406       0.46290804       1.88946242       0.00000000
Si       1.36580247       1.77020824      -1.07180354       0.00000000
Si      -1.56947634      -1.92893215      -0.04606092       0.00000000
Si      -2.84662863      -0.79053808      -1.65409352       0.00000000
Si       2.07293508       1.13985528       2.56242730       0.00000000
Si       3.17682693       1.46454268       0.44930931       0.00000000
Si      -0.08482203       2.05544614       3.01914356       0.00000000
Si      -2.21195394      -1.81332202       2.28292673       0.00000000
Si      -2.00424015       1.21216985      -2.91902909       0.00000000
