10
Lattice="16.28999089631971 0.0 0.0 0.0 16.28999089631971 0.0 0.0 0.0 34.450931932916035" Properties=species:S:1:pos:R:3:initial_magmoms:R:1 pbc="T T T"
Si       0.47156292      -1.97034785      -1.18142647       0.00000000
Si      -1.64045187      -1.25059049       1.18235664       0.00000000
Si       1.98283509       0.80638758       1.09533354       0.00000000
Si      -0.77377500       2.19980160      -0.65074402       0.00000000
Si       0.01646919      -2.26920419       2.64262911       0.00000000
Si       1.25863056      -3.21347033       0.76825621       0.00000000
Si      -3.46527396       0.36097663       0.83650355       0.00000000
Si       1.12098006       0.90910906       3.30229593       0.00000000
Si      -0.56123937       1.92391416      -3.03991748       0.00000000
Si       1.90439874      -1.36913282      -2.90834930       0.00000000
