10
Lattice="16.28999089631971 0.0 0.0 0.0 16.28999089631971 0.0 0.0 0.0 34.450931932916035" Properties=species:S:1:pos:R:3:initial_magmoms:R:1 pbc="T T T"
Si       1.35532800      -1.35553977       1.35940008       0.00000000
Si      -1.36129014       1.36088289       1.35902112       0.00000000
Si       1.36922337       1.36288656      -1.36150504       0.00000000
Si      -1.36524861      -1.36982610      -1.37201947       0.00000000
Si      -2.67555105       0.11432322      -2.66544598       0.00000000
Si       0.01456326       2.72624553      -2.67391402       0.00000000
Si       2.70821250      -2.71024875       0.00344510       0.00000000
Si       2.71112841       2.71603170       0.00482313       0.00000000
Si       2.71142163       0.00241092       2.71676756       0.00000000
Si      -0.00332316      -2.71249677       2.71680201       0.00000000
