10
Lattice="16.28999089631971 0.0 0.0 0.0 16.28999089631971 0.0 0.0 0.0 34.450931932916035" Properties=species:S:1:pos:R:3:initial_magmoms:R:1 pbc="T T T"
Si      -2.04240762       1.02001464       0.48389806       0.00000000
Si       1.14201045       1.37476197       1.52321436       0.00000000
Si       0.84010788       0.47270322      -2.17316600       0.00000000
Si      -0.29918214      -2.27255274       0.78258781       0.00000000
Si      -3.60131175      -0.65850696       0.13422091       0.00000000
Si      -1.93546377       1.07945685       2.97377166       0.00000000
Si       3.21865965       0.33668172       1.82483243       0.00000000
Si       0.26023275       0.81023202       3.65917333       0.00000000
Si      -0.04891887      -3.60904950      -1.18566394       0.00000000
Si      -2.61563643      -2.36328804       1.42509805       0.00000000
