10
Lattice="16.28999089631971 0.0 0.0 0.0 16.28999089631971 0.0 0.0 0.0 34.450931932916035" Properties=species:S:1:pos:R:3:initial_magmoms:R:1 pbc="T T T"
Si      -1.51295071       0.68400081      -1.60249561       0.00000000
Si      -1.50879676      -1.15277814       1.31374782       0.00000000
Si       1.11627551       1.53398043       1.36346743       0.00000000
Si       1.14412000      -1.71023823      -1.24113958       0.00000000
Si      -2.62164811      -2.42419635      -0.30641638       0.00000000
Si      -0.10570648      -2.38242879       2.69048017       0.00000000
Si      -2.43533938       2.75516028      -0.36208911       0.00000000
Si       2.59927150       0.32863446       2.69228540       0.00000000
Si       2.92508779       2.42532036       0.20669889       0.00000000
Si      -0.60093877      -3.26045979      -1.90280455       0.00000000
