10
Lattice="16.28999089631971 0.0 0.0 0.0 16.28999089631971 0.0 0.0 0.0 34.450931932916035" Properties=species:S:1:pos:R:3:initial_magmoms:R:1 pbc="T T T"
Si       1.35744570      -1.35702216      -1.35726412       0.00000000
Si       1.35736425       1.35689184       1.35764308       0.00000000
Si      -1.35747828       1.35786924      -1.35726412       0.00000000
Si      -1.35925389      -1.35765747       1.35581718       0.00000000
Si       2.71226871       0.00153126      -2.71504501       0.00000000
Si       0.00162900       2.71420722      -2.71383923       0.00000000
Si       0.00135207      -2.71497285      -2.71463160       0.00000000
Si      -2.71526607      -2.71437012      -0.00041341       0.00000000
Si       2.71523349      -2.71466334       0.00017225       0.00000000
Si       2.71551042       2.71458189       0.00034451       0.00000000
