10
Lattice="16.28999089631971 0.0 0.0 0.0 16.28999089631971 0.0 0.0 0.0 34.450931932916035" Properties=species:S:1:pos:R:3:initial_magmoms:R:1 pbc="T T T"
Si       1.35632169       1.35524655      -1.35671291       0.00000000
Si      -1.35900954       1.35500220       1.35705742       0.00000000
Si      -1.35876519      -1.35959598      -1.35657510       0.00000000
Si       1.35593073      -1.35863487       1.36432657       0.00000000
Si      -2.71454931       2.71101438       0.00065457       0.00000000
Si      -0.00125433       2.71248048      -2.71390813       0.00000000
Si       2.71448415       2.71225242       0.00117133       0.00000000
Si       2.71409319      -0.00312768      -2.71377033       0.00000000
Si      -2.71568961      -0.00288333      -2.71328801       0.00000000
Si      -2.71355562      -2.71696023       0.00096463       0.00000000
