10
Lattice="16.28999089631971 0.0 0.0 0.0 16.28999089631971 0.0 0.0 0.0 34.450931932916035" Properties=species:S:1:pos:R:3:initial_magmoms:R:1 pbc="T T T"
Si      -1.93613166      -0.82758087       0.97950944       0.00000000
Si       1.74661380      -1.34048781      -1.03159928       0.00000000
Si       0.73060650       1.46769642       1.84901700       0.00000000
Si      -2.08798704      -0.32519727      -1.35071844       0.00000000
Si      -2.42206236       1.22636007       2.01000630       0.00000000
Si       3.35503953      -0.54213120       0.42329884       0.00000000
Si       0.76893687       0.12175146       3.74805678       0.00000000
Si      -0.85258602       3.15529222       2.05606722       0.00000000
Si       0.34332804       2.10141000      -3.26980868       0.00000000
Si       2.72528442      -0.70323930       2.74815238       0.00000000
