10
Lattice="16.28999089631971 0.0 0.0 0.0 16.28999089631971 0.0 0.0 0.0 34.450931932916035" Properties=species:S:1:pos:R:3:initial_magmoms:R:1 pbc="T T T"
Si      -1.27715229       1.13839407      -1.60803260       0.00000000
Si       0.48593070      -2.05394094      -1.03049685       0.00000000
Si      -0.64247760       0.11561013       2.32898765       0.00000000
Si       1.56947634       1.92893215       0.04606092       0.00000000
Si       0.14550228       2.39184019       1.93552334       0.00000000
Si       3.15266886       0.24133635      -0.16098929       0.00000000
Si       2.42206236      -1.22636007      -2.01000630       0.00000000
Si      -3.05957151       1.94360455      -0.33055688       0.00000000
Si       0.33407532      -1.55155734      -3.36072474       0.00000000
Si       0.31169286      -3.67515432       0.64898702       0.00000000
