10
Lattice="16.28999089631971 0.0 0.0 0.0 16.28999089631971 0.0 0.0 0.0 34.450931932916035" Properties=species:S:1:pos:R:3:initial_magmoms:R:1 pbc="T T T"
Si      -1.58319252       1.68759580       0.20705022       0.00000000
Si       0.03833037      -1.34594496       1.89903978       0.00000000
Si       2.23396173       0.93853206       0.26079370       0.00000000
Si      -0.73060650      -1.46769642      -1.84901700       0.00000000
Si       1.99467792      -2.17093572       0.89913537       0.00000000
Si      -3.15266886      -0.24133635       0.16098929       0.00000000
Si       0.79762356       0.44999496       3.35776196       0.00000000
Si      -0.21739005       3.45780404      -0.86475333       0.00000000
Si       3.07235916       0.31245849      -1.82624492       0.00000000
Si       1.59363441       3.15213848       0.65635952       0.00000000
