10
Lattice="16.28999089631971 0.0 0.0 0.0 16.28999089631971 0.0 0.0 0.0 34.450931932916035" Properties=species:S:1:pos:R:3:initial_magmoms:R:1 pbc="T T T"
Si      -1.35711990       1.35683971       1.35722967       0.00000000
Si       1.35760860      -1.35777803       1.35719522       0.00000000
Si      -1.35718506      -1.35849379      -1.35764308       0.00000000
Si       1.35829278       1.35824065      -1.35829765       0.00000000
Si       2.71505430      -0.00161271       2.71366697       0.00000000
Si      -2.71451673       2.71488814      -0.00003445       0.00000000
Si       0.00019548       2.71526281       2.71432154       0.00000000
Si       2.71502172       2.71457863      -0.00020671       0.00000000
Si       0.00060273      -2.71548828       2.71483831       0.00000000
Si      -2.71513575      -2.71526022      -0.00024116       0.00000000
