10
Lattice="16.28999089631971 0.0 0.0 0.0 16.28999089631971 0.0 0.0 0.0 34.450931932916035" Properties=species:S:1:pos:R:3:initial_magmoms:R:1 pbc="T T T"
Si      -0.87040728      -2.00576326       0.98884565       0.00000000
Si       1.33780715      -1.31705627      -1.55818207       0.00000000
Si      -1.36308204       1.39072617      -1.52676280       0.00000000
Si       1.82992805       0.92698245       1.46916081       0.00000000
Si       2.65330610      -2.68034750      -0.17201360       0.00000000
Si      -2.75911875       2.63634102       0.01960259       0.00000000
Si       3.61423691      -0.85214619       1.04396717       0.00000000
Si       2.82166325       2.73171897       0.08812553       0.00000000
Si      -2.83230972      -2.71385603      -0.22902992       0.00000000
Si       0.94193245      -3.61400885       1.31096205       0.00000000
