10
Lattice="16.28999089631971 0.0 0.0 0.0 16.28999089631971 0.0 0.0 0.0 34.450931932916035" Properties=species:S:1:pos:R:3:initial_magmoms:R:1 pbc="T T T"
Si       1.63492956      -1.74252501      -0.34874698       0.00000000
Si      -0.30947742       0.18456570       2.40367732       0.00000000
Si       0.04225626       1.97631909      -1.67204246       0.00000000
Si      -2.25823383      -0.86619143      -1.58636295       0.00000000
Si      -0.47936583      -2.63952476      -1.85039504       0.00000000
Si      -1.40331834       0.87066792      -3.14747335       0.00000000
Si      -1.38722382       3.34655244      -0.36642032       0.00000000
Si      -3.67952004      -0.37347268       0.55645176       0.00000000
Si      -1.37694483       2.23870212       2.82732066       0.00000000
Si       3.16790001      -1.10722315      -2.11315244       0.00000000
