10
Lattice="16.28999089631971 0.0 0.0 0.0 16.28999089631971 0.0 0.0 0.0 34.450931932916035" Properties=species:S:1:pos:R:3:initial_magmoms:R:1 pbc="T T T"
Si      -1.35665401      -1.35874890       1.35643730       0.00000000
Si       1.35692442      -1.35775521      -1.35760863       0.00000000
Si      -1.35784969       1.35713619      -1.35784979       0.00000000
Si       1.35871632       1.35835794       1.35753973       0.00000000
Si       2.71023246      -0.00099369       2.71480386       0.00000000
Si       2.71463076      -0.00182448      -2.71425264       0.00000000
Si       2.71427238      -2.71463076      -0.00024116       0.00000000
Si       2.71479366       2.71487511      -0.00031006       0.00000000
Si      -2.71449481      -0.00073305      -2.71518282       0.00000000
Si      -2.71542082       2.71487511      -0.00034451       0.00000000
