10
Lattice="16.28999089631971 0.0 0.0 0.0 16.28999089631971 0.0 0.0 0.0 34.450931932916035" Properties=species:S:1:pos:R:3:initial_magmoms:R:1 pbc="T T T"
Si      -2.17639287       0.48022920       0.64375047       0.00000000
Si       0.56529788      -2.04731580       0.95653066       0.00000000
Si       1.51653614       1.53925839       0.97444515       0.00000000
Si      -0.32138541       0.43714215      -2.30904055       0.00000000
Si      -2.11595697       2.78135460      -0.15034395       0.00000000
Si      -2.27517543      -0.91981485      -2.60773030       0.00000000
Si      -0.81404388       2.75846715      -2.18725644       0.00000000
Si       0.80575620      -1.36724576       3.24765672       0.00000000
Si      -3.37906728      -1.24450224      -0.49461231       0.00000000
Si       2.76145541      -2.52612044       0.20436304       0.00000000
