10
Lattice="16.28999089631971 0.0 0.0 0.0 16.28999089631971 0.0 0.0 0.0 34.450931932916035" Properties=species:S:1:pos:R:3:initial_magmoms:R:1 pbc="T T T"
Si      -1.35664512      -1.35786924      -1.35733303       0.00000000
Si      -1.35757113       1.35773892       1.35750528       0.00000000
Si       1.35784969      -1.35713619       1.35784979       0.00000000
Si       1.35903886       1.35873261      -1.35781534       0.00000000
Si       0.00284260      -2.71687878      -2.71232339       0.00000000
Si      -2.71539054       0.00193851       2.71401148       0.00000000
Si       2.71477411      -2.71489140       0.00024116       0.00000000
Si      -2.71508103      -2.71484253       0.00003445       0.00000000
Si       0.00119569      -2.71588509       2.71428709       0.00000000
Si      -2.71552086       2.71494027       0.00003445       0.00000000
