10
Lattice="16.28999089631971 0.0 0.0 0.0 16.28999089631971 0.0 0.0 0.0 34.450931932916035" Properties=species:S:1:pos:R:3:initial_magmoms:R:1 pbc="T T T"
Si      -1.35395964       1.35490446       1.36098483       0.00000000
Si       1.35781942       1.35580041      -1.35650620       0.00000000
Si      -1.35669636      -1.35920502      -1.35640285       0.00000000
Si       1.35996674      -1.35938421       1.36611802       0.00000000
Si      -2.71456560       2.71235016       0.00106798       0.00000000
Si      -0.00013032       2.71300176      -2.71397703       0.00000000
Si      -2.71448415      -0.00156384      -2.71383923       0.00000000
Si       2.71574892       2.71352304       0.00106798       0.00000000
Si       2.71539054      -0.00193851      -2.71401148       0.00000000
Si      -2.71451673      -2.71609686       0.00055122       0.00000000
