10
Lattice="16.28999089631971 0.0 0.0 0.0 16.28999089631971 0.0 0.0 0.0 34.450931932916035" Properties=species:S:1:pos:R:3:initial_magmoms:R:1 pbc="T T T"
Si       0.11761380       0.34357239       2.31975480       0.00000000
Si      -1.72499697      -1.43962875      -0.70087015       0.00000000
Si       1.82891088      -1.03096152      -1.07704009       0.00000000
Si      -0.30354786       2.25684918      -0.75898891       0.00000000
Si       2.63402784       1.10475522      -1.59301198       0.00000000
Si      -1.28063835      -3.39853383       0.58036072       0.00000000
Si      -1.25190279      -1.66343706      -3.03195931       0.00000000
Si      -2.03890527       2.15388009      -2.31965145       0.00000000
Si      -0.10184508       2.65461840       2.75700627       0.00000000
Si       1.00222596      -2.27545236      -2.92578148       0.00000000
