10
Lattice="16.28999089631971 0.0 0.0 0.0 16.28999089631971 0.0 0.0 0.0 34.450931932916035" Properties=species:S:1:pos:R:3:initial_magmoms:R:1 pbc="T T T"
Si       0.74925855       1.81609065      -1.42285873       0.00000000
Si       0.15631884       0.61437735       2.37642661       0.00000000
Si      -1.82179215      -0.76615128      -1.47949610       0.00000000
Si       1.64296053      -1.84480992      -0.00651123       0.00000000
Si       2.05402239       0.50441985      -2.93532439       0.00000000
Si       0.30677328       2.99395539       2.10615890       0.00000000
Si      -1.68093252      -0.79359993       3.20207811       0.00000000
Si       2.41188111       2.84296338      -0.11758110       0.00000000
Si      -0.65182806      -2.22614253      -2.92743513       0.00000000
Si       3.38126643      -0.83474847      -1.45789535       0.00000000
