10
Lattice="16.28999089631971 0.0 0.0 0.0 16.28999089631971 0.0 0.0 0.0 34.450931932916035" Properties=species:S:1:pos:R:3:initial_magmoms:R:1 pbc="T T T"
Si       0.87347373       1.83286935       1.23244833       0.00000000
Si      -1.32724404       1.33916832      -1.47742904       0.00000000
Si       1.39665966      -1.37793852      -1.44731891       0.00000000
Si      -1.73830590      -1.01006145       1.45138412       0.00000000
Si      -2.63200788       2.65083912       0.03503662       0.00000000
Si       0.66297272       1.18234449       3.50393734       0.00000000
Si      -3.38126643       0.83474847       1.45789535       0.00000000
Si      -0.56910744      -1.10078046       3.65369563       0.00000000
Si      -2.68182270      -0.01808190      -2.84830129       0.00000000
Si       0.02832136       2.69506647      -2.84557967       0.00000000
