10
Lattice="16.28999089631971 0.0 0.0 0.0 16.28999089631971 0.0 0.0 0.0 34.450931932916035" Properties=species:S:1:pos:R:3:initial_magmoms:R:1 pbc="T T T"
Si       0.48597957       2.25407988       0.08078748       0.00000000
Si       0.67328199       0.11432322      -2.26118818       0.00000000
Si      -2.35054926      -0.31581423       0.04650878       0.00000000
Si       1.62717552       0.24501789       2.37056995       0.00000000
Si      -0.00462636      -3.13518969       1.03780045       0.00000000
Si       3.26071621      -0.08114049       0.75885110       0.00000000
Si       2.75010616       1.95142797      -0.25524710       0.00000000
Si       0.63184023       2.44506384       2.36598797       0.00000000
Si      -2.25875511      -2.52317439       0.93162262       0.00000000
Si       0.82205856      -1.89069885       2.88654185       0.00000000
