10
Lattice="16.28999089631971 0.0 0.0 0.0 16.28999089631971 0.0 0.0 0.0 34.450931932916035" Properties=species:S:1:pos:R:3:initial_magmoms:R:1 pbc="T T T"
Si      -1.35715248       1.35697820       1.35967569       0.00000000
Si       1.35819504      -1.35668007       1.35964124       0.00000000
Si      -1.35910728      -1.34617302      -1.37443792       0.00000000
Si       1.36254447       1.35031068      -1.37769009       0.00000000
Si       2.71650411       2.71399775       0.00062012       0.00000000
Si      -2.71484253       2.71635165      -0.00509874       0.00000000
Si      -2.71489140      -2.71642266       0.00024116       0.00000000
Si      -2.71510317       0.00021177       2.71707762       0.00000000
Si       0.00024435      -2.71539639       2.71721542       0.00000000
Si       0.00003258       2.71547199       2.71731877       0.00000000
