10
Lattice="16.28999089631971 0.0 0.0 0.0 16.28999089631971 0.0 0.0 0.0 34.450931932916035" Properties=species:S:1:pos:R:3:initial_magmoms:R:1 pbc="T T T"
Si       1.28140090      -1.35822762       1.45353731       0.00000000
Si      -1.44560718       1.33649676       1.43434468       0.00000000
Si       1.42971858       1.40834545      -1.45707339       0.00000000
Si      -0.91359207      -2.00645559      -1.20642167       0.00000000
Si       2.79479126      -2.51631630       0.01324295       0.00000000
Si       2.65265287       2.70807633       0.09001000       0.00000000
Si       2.62167580      -0.01422117       2.81782253       0.00000000
Si      -0.09164754       2.70018383       2.81265489       0.00000000
Si      -2.78606241      -2.73976623       0.05890768       0.00000000
Si       0.94206699      -3.63923487      -1.07423612       0.00000000
