10
Lattice="16.28999089631971 0.0 0.0 0.0 16.28999089631971 0.0 0.0 0.0 34.450931932916035" Properties=species:S:1:pos:R:3:initial_magmoms:R:1 pbc="T T T"
Si      -1.49659977       1.37715660      -1.12909547       0.00000000
Si       0.79504974      -1.81473858      -1.23200047       0.00000000
Si      -1.22851524      -1.05673230       1.69667489       0.00000000
Si       1.61683137       1.32527295       1.13405641       0.00000000
Si       0.69814053      -1.96444368       2.67384167       0.00000000
Si       1.31504283      -3.11339367       0.70493536       0.00000000
Si       0.03534930       2.05597719      -2.85071286       0.00000000
Si      -1.59566577       3.23941311       0.29293644       0.00000000
Si       0.61709778       3.46064760       0.99408220       0.00000000
Si       2.09505690      -0.09218511       3.03268278       0.00000000
