10
Lattice="16.28999089631971 0.0 0.0 0.0 16.28999089631971 0.0 0.0 0.0 34.450931932916035" Properties=species:S:1:pos:R:3:initial_magmoms:R:1 pbc="T T T"
Si      -1.46388456      -1.64027268      -0.77307934       0.00000000
Si      -0.39662892       0.59263020       2.23438534       0.00000000
Si       2.16983356      -0.65739924      -0.62108175       0.00000000
Si      -1.22460075       1.46919510      -1.41142102       0.00000000
Si      -2.66093892       0.98065800       1.68554724       0.00000000
Si      -3.42023211      -0.81528192       0.22682506       0.00000000
Si      -0.83412945      -1.47916458      -3.09793288       0.00000000
Si      -0.38620332       0.84312153      -3.49845964       0.00000000
Si       2.65895873      -2.34154089       0.93079580       0.00000000
Si       3.42695078       1.24884027      -0.39005367       0.00000000
