10
Lattice="16.28999089631971 0.0 0.0 0.0 16.28999089631971 0.0 0.0 0.0 34.450931932916035" Properties=species:S:1:pos:R:3:initial_magmoms:R:1 pbc="T T T"
Si       0.39662892      -0.59263020      -2.23438534       0.00000000
Si      -2.26431000       0.38802780      -0.54883810       0.00000000
Si       0.41164830      -1.91088216       1.38885565       0.00000000
Si       1.37217416       1.96267037       0.31402042       0.00000000
Si       2.73874715      -2.22330807       0.96965647       0.00000000
Si      -0.82797183       0.87656490      -3.64580636       0.00000000
Si      -3.69714582      -0.21318723       1.17808473       0.00000000
Si       3.56833169       1.48386573      -0.43814720       0.00000000
Si      -3.02360319      -1.40791212      -2.00756028       0.00000000
Si      -1.06725564      -2.23290288      -3.00746469       0.00000000
