10
Lattice="16.28999089631971 0.0 0.0 0.0 16.28999089631971 0.0 0.0 0.0 34.450931932916035" Properties=species:S:1:pos:R:3:initial_magmoms:R:1 pbc="T T T"
Si      -2.30426027      -0.21887244      -0.09167398       0.00000000
Si       0.98083719       1.10846934      -1.81580628       0.00000000
Si       0.98253135      -2.05065036       0.65332784       0.00000000
Si       1.03713543       1.38192957       1.64238020       0.00000000
Si       3.22941105       0.32050575       1.50664345       0.00000000
Si       0.64286856       3.37662378      -1.05247656       0.00000000
Si      -0.43314947      -2.53597833       2.52294651       0.00000000
Si      -2.68652141      -2.21671062      -1.28353909       0.00000000
Si      -3.13697249       1.86512355      -0.77814363       0.00000000
Si      -3.09022019      -0.14173929       2.16159048       0.00000000
