10
Lattice="16.28999089631971 0.0 0.0 0.0 16.28999089631971 0.0 0.0 0.0 34.450931932916035" Properties=species:S:1:pos:R:3:initial_magmoms:R:1 pbc="T T T"
Si       1.35695374       1.35744570      -1.35740193       0.00000000
Si      -1.35792951      -1.35772263      -1.35757418       0.00000000
Si       1.35613924      -1.35747828       1.36126043       0.00000000
Si      -1.35956451       1.35452979       1.36263847       0.00000000
Si      -2.71574892      -2.71352304      -0.00106798       0.00000000
Si       2.71505104       0.00035838      -2.71459715       0.00000000
Si       2.71417138       2.71575477      -0.00013780       0.00000000
Si      -0.00004073       2.71485882      -2.71507946       0.00000000
Si       2.71620763      -2.71423980       0.00031006       0.00000000
Si      -0.00035838      -2.71546155      -2.71507946       0.00000000
