10
Lattice="16.28999089631971 0.0 0.0 0.0 16.28999089631971 0.0 0.0 0.0 34.450931932916035" Properties=species:S:1:pos:R:3:initial_magmoms:R:1 pbc="T T T"
Si      -0.21050101      -0.65052486       2.27148902       0.00000000
Si      -0.87347373      -1.83286935      -1.23244833       0.00000000
Si       1.93119905       0.91000827      -1.15117853       0.00000000
Si      -1.84285905       1.84484250       0.10786593       0.00000000
Si      -2.20071777      -0.49370103      -2.70987737       0.00000000
Si       0.53805055       2.22493707      -2.70250487       0.00000000
Si       3.28540304      -0.72293391       1.27947388       0.00000000
Si      -0.43003808       1.54466667       3.29619811       0.00000000
Si      -3.50548161       0.81796977      -1.19741171       0.00000000
Si      -0.78335710       3.55271868      -1.24068211       0.00000000
