10
Lattice="16.28999089631971 0.0 0.0 0.0 16.28999089631971 0.0 0.0 0.0 34.450931932916035" Properties=species:S:1:pos:R:3:initial_magmoms:R:1 pbc="T T T"
Si       0.21050101       0.65052486      -2.27148902       0.00000000
Si      -0.21953707       2.19519153       1.02470909       0.00000000
Si      -0.11507745       0.45918252       2.54106771       0.00000000
Si      -1.23208016      -2.28312495       0.14975828       0.00000000
Si       0.92934450      -3.17682693       0.55751974       0.00000000
Si       2.29507041       0.23278410       2.71642305       0.00000000
Si       3.49590405      -0.07240905      -0.99201514       0.00000000
Si      -2.32271195      -0.73262646       2.75549043       0.00000000
Si      -1.63235804       2.49536736      -2.16362309       0.00000000
Si      -0.66297272      -1.18234449      -3.50393734       0.00000000
