10
Lattice="16.28999089631971 0.0 0.0 0.0 16.28999089631971 0.0 0.0 0.0 34.450931932916035" Properties=species:S:1:pos:R:3:initial_magmoms:R:1 pbc="T T T"
Si      -0.17246223       0.20735541       2.31927248       0.00000000
Si       0.68831766       2.02282704      -1.03366634       0.00000000
Si      -2.28230426       0.03121164      -0.68495381       0.00000000
Si       0.33796863      -2.26815444      -0.76332973       0.00000000
Si       0.39426687      -1.99469421       2.69485675       0.00000000
Si      -0.33614415       1.57288095      -3.09986214       0.00000000
Si      -0.58850883      -2.02740453      -2.86449324       0.00000000
Si      -1.99620266      -0.14833674      -2.97707895       0.00000000
Si      -0.64286856      -3.37662378       1.05247656       0.00000000
Si       1.78341291       1.40317173       2.96643360       0.00000000
