10
Lattice="16.28999089631971 0.0 0.0 0.0 16.28999089631971 0.0 0.0 0.0 34.450931932916035" Properties=species:S:1:pos:R:3:initial_magmoms:R:1 pbc="T T T"
Si       0.28610160      -0.17954838      -2.29212514       0.00000000
Si      -1.36641858       1.89354960       0.13074136       0.00000000
Si      -1.49753679      -1.54271187       0.95928674       0.00000000
Si       2.28230426      -0.03121164       0.68495381       0.00000000
Si       1.69379543      -2.05861617      -2.17953943       0.00000000
Si       1.94616011       1.54166931      -2.41490833       0.00000000
Si       2.62027289      -2.29936608      -0.07837591       0.00000000
Si      -3.29950401      -1.33946154      -0.46426102       0.00000000
Si       2.97062192       1.99161540      -0.34871253       0.00000000
Si      -3.51896289       0.97158447      -0.02700955       0.00000000
