10
Lattice="16.28999089631971 0.0 0.0 0.0 16.28999089631971 0.0 0.0 0.0 34.450931932916035" Properties=species:S:1:pos:R:3:initial_magmoms:R:1 pbc="T T T"
Si       1.02446181       0.44994609       2.06619580       0.00000000
Si      -0.31322412       1.77518646      -1.53237831       0.00000000
Si       1.28024739      -1.91027943      -0.59035150       0.00000000
Si      -1.66005851      -1.72121769       0.12278319       0.00000000
Si      -1.94616011      -1.54166931       2.41490833       0.00000000
Si       0.33614415      -1.57288095       3.09986214       0.00000000
Si      -2.64032297       2.08761237      -1.11317913       0.00000000
Si       3.30919947       0.42652107       1.31378702       0.00000000
Si      -0.25236468      -3.60028548       0.23536890       0.00000000
Si       1.11705417      -2.22487191      -2.87269256       0.00000000
