10
Lattice="16.28999089631971 0.0 0.0 0.0 16.28999089631971 0.0 0.0 0.0 34.450931932916035" Properties=species:S:1:pos:R:3:initial_magmoms:R:1 pbc="T T T"
Si      -0.28610160       0.17954838       2.29212514       0.00000000
Si       1.40769383      -1.87906779       0.11258571       0.00000000
Si      -1.06919156      -0.39873033      -2.08490266       0.00000000
Si       1.66005851       1.72121769      -0.12278319       0.00000000
Si       2.94030590      -0.18906174      -0.71313469       0.00000000
Si      -2.06452685       1.80131562      -2.08948464       0.00000000
Si      -1.87430852      -2.53444707      -1.56893077       0.00000000
Si       1.99620266       0.14833674       2.97707895       0.00000000
Si      -1.65252017       2.07309798       2.42286649       0.00000000
Si      -0.00570476      -3.64744503      -0.64633430       0.00000000
