10
Lattice="16.28999089631971 0.0 0.0 0.0 16.28999089631971 0.0 0.0 0.0 34.450931932916035" Properties=species:S:1:pos:R:3:initial_magmoms:R:1 pbc="T T T"
Si      -1.25711722      -1.90623951      -0.23102808       0.00000000
Si      -0.25524801       0.82765566       2.18629181       0.00000000
Si       2.14389432      -0.88402572      -0.45495926       0.00000000
Si      -0.54718110       1.25282222      -1.96993984       0.00000000
Si      -0.69266709      -2.44162665      -2.48215658       0.00000000
Si       1.04339079       2.83637312       1.96463439       0.00000000
Si       3.19223727       0.98409097      -1.45172863       0.00000000
Si      -3.42695078      -1.24884027       0.39005367       0.00000000
Si       1.67716953      -2.30006655      -2.33877172       0.00000000
Si       1.53629361       1.85635857      -2.90555877       0.00000000
