10
Lattice="16.28999089631971 0.0 0.0 0.0 16.28999089631971 0.0 0.0 0.0 34.450931932916035" Properties=species:S:1:pos:R:3:initial_magmoms:R:1 pbc="T T T"
Si      -1.65891007      -1.53590265      -0.71602857       0.00000000
Si       2.36983662       0.14156010       0.14338486       0.00000000
Si      -0.56445013       0.53538714       2.25112850       0.00000000
Si      -0.82365172       2.00396322      -1.20065010       0.00000000
Si       0.69266709       2.44162665       2.48215658       0.00000000
Si      -3.56841314      -0.28637820      -0.22572263       0.00000000
Si      -1.55445044      -3.27191166       0.80033005       0.00000000
Si       0.85569741      -3.49831008       0.97568539       0.00000000
Si       0.14548599       3.69444887       0.51221674       0.00000000
Si      -3.12048701       2.03590791      -0.62624939       0.00000000
