10
Lattice="16.28999089631971 0.0 0.0 0.0 16.28999089631971 0.0 0.0 0.0 34.450931932916035" Properties=species:S:1:pos:R:3:initial_magmoms:R:1 pbc="T T T"
Si      -0.80536131      -1.99208781       0.89214183       0.00000000
Si       2.25448713      -0.45439326      -0.49189068       0.00000000
Si      -0.21802536       1.19625615       2.02130621       0.00000000
Si      -0.82080423       1.03029363      -2.03550000       0.00000000
Si      -0.84118302       3.13293257       0.81235343       0.00000000
Si       2.96293923       1.73778529      -0.09270751       0.00000000
Si       0.78749118      -2.24525070       2.58943684       0.00000000
Si      -2.88880833      -1.20559032       1.70411630       0.00000000
Si       1.23137739       3.33955493      -0.42912105       0.00000000
Si       2.86487343      -1.82327454       1.33156371       0.00000000
