10
Lattice="16.28999089631971 0.0 0.0 0.0 16.28999089631971 0.0 0.0 0.0 34.48637585096406" Properties=species:S:1:pos:R:3:initial_magmoms:R:1 pbc="T T T"
Si      -0.92350128       1.21438692      -1.83095169       0.00000000
Si      -1.69635005       0.23762223       1.68928158       0.00000000
Si      -0.81375066      -2.23129506       1.06138778       0.00000000
Si       2.08528290      -1.27907451      -1.33520976       0.00000000
Si       0.15167619       0.20554722       3.54768444       0.00000000
Si      -1.89016847      -0.56571912      -3.06766831       0.00000000
Si       3.48138477      -1.07771382       0.81063720       0.00000000
Si       2.13387597      -1.11161331       3.02159448       0.00000000
Si       0.98034849       2.31617736      -3.04570047       0.00000000
Si       0.90572400      -3.10062915       2.48488271       0.00000000
