10
Lattice="16.28999089631971 0.0 0.0 0.0 16.28999089631971 0.0 0.0 0.0 34.48637585096406" Properties=species:S:1:pos:R:3:initial_magmoms:R:1 pbc="T T T"
Si       0.64221696      -2.19822866      -0.48311991       0.00000000
Si       1.99037736       1.43277066      -0.08869901       0.00000000
Si      -1.39610187      -0.20136069      -2.14584696       0.00000000
Si      -1.34750880      -0.03389949       2.21095728       0.00000000
Si       1.47181779       2.18554785      -2.33324603       0.00000000
Si      -2.57566077      -2.02291533       1.67424551       0.00000000
Si      -1.10811096      -3.51227780       0.51560609       0.00000000
Si      -3.48138477       1.07771382      -0.81063720       0.00000000
Si       2.37355074      -2.81094443       0.93123613       0.00000000
Si       0.19868913       0.67903236      -3.76063793       0.00000000
