10
Lattice="16.28999089631971 0.0 0.0 0.0 16.28999089631971 0.0 0.0 0.0 34.48637585096406" Properties=species:S:1:pos:R:3:initial_magmoms:R:1 pbc="T T T"
Si      -1.64558322       0.06307488      -1.77946350       0.00000000
Si      -0.39364785       1.40558265       1.94323939       0.00000000
Si       0.59259762      -2.17938113       0.93916800       0.00000000
Si       2.29627098       0.36196380      -0.80011885       0.00000000
Si       3.25990593      -0.00759114       1.26444368       0.00000000
Si       1.88937936       1.28620953       2.69155968       0.00000000
Si       1.29438711      -3.50379071      -0.99700168       0.00000000
Si      -0.29807442       0.09697437      -3.99042078       0.00000000
Si       2.88987858      -2.26674440       1.63620702       0.00000000
Si      -1.70567703       0.30410172       3.65710977       0.00000000
