10
Lattice="16.28999089631971 0.0 0.0 0.0 16.28999089631971 0.0 0.0 0.0 34.48637585096406" Properties=species:S:1:pos:R:3:initial_magmoms:R:1 pbc="T T T"
Si      -0.08122194      -0.68724252       2.25578959       0.00000000
Si       1.37052657      -1.29380067      -1.42711600       0.00000000
Si       1.01603988       2.12999895       0.25385435       0.00000000
Si      -2.28302721       0.11937312      -0.74832029       0.00000000
Si       2.00533158      -1.72658362       2.25941066       0.00000000
Si      -1.88937936      -1.28620953      -2.69155968       0.00000000
Si      -0.78952743       3.23172423       1.18415935       0.00000000
Si      -2.77803144       2.23669845       0.34603649       0.00000000
Si       0.40689162      -0.92424573      -3.49167853       0.00000000
Si       3.51451863      -0.20601963       1.18446973       0.00000000
