10
Lattice="16.28999089631971 0.0 0.0 0.0 16.28999089631971 0.0 0.0 0.0 34.48637585096406" Properties=species:S:1:pos:R:3:initial_magmoms:R:1 pbc="T T T"
Si      -0.16752636       2.24899740      -0.62896287       0.00000000
Si       0.77403564      -1.01395965      -2.02507561       0.00000000
Si       1.22346045       0.07700283       2.05983789       0.00000000
Si      -1.82734704      -1.54173610       0.26271736       0.00000000
Si      -0.24133635      -2.98231523       1.26537481       0.00000000
Si       1.02532518      -3.10776452      -0.86895370       0.00000000
Si      -1.18113903       1.99296747      -2.73121903       0.00000000
Si       2.79609705       0.18538020      -2.47019151       0.00000000
Si       3.40493580       0.83504169       1.36424730       0.00000000
Si      -0.71773740      -0.10948509      -3.76043101       0.00000000
