10
Lattice="16.28999089631971 0.0 0.0 0.0 16.28999089631971 0.0 0.0 0.0 34.48637585096406" Properties=species:S:1:pos:R:3:initial_magmoms:R:1 pbc="T T T"
Si      -1.11584871      -1.56663211       1.35589957       0.00000000
Si       1.60581933       1.14235254       1.31920604       0.00000000
Si      -1.87802523       1.86070896      -0.02282999       0.00000000
Si       1.18941435      -1.88314518      -1.65041541       0.00000000
Si      -1.92036294       1.96739217      -2.35283431       0.00000000
Si       0.22701744       2.49222339       2.76809676       0.00000000
Si      -2.52125217      -0.23038947       2.75688178       0.00000000
Si      -1.88876034      -3.28253993      -0.12611675       0.00000000
Si       3.04649064       2.43543645      -0.25726851       0.00000000
Si       2.79125892      -2.74595154      -0.00051730       0.00000000
