10
Lattice="16.28999089631971 0.0 0.0 0.0 16.28999089631971 0.0 0.0 0.0 34.48637585096406" Properties=species:S:1:pos:R:3:initial_magmoms:R:1 pbc="T T T"
Si       0.91149066       1.88066421      -1.04992071       0.00000000
Si       1.30792410      -1.32530553       1.44164167       0.00000000
Si      -1.42294779       1.36536264       1.44090022       0.00000000
Si      -0.79711857      -1.95681996      -1.34928508       0.00000000
Si       2.68672599      -2.67517638      -0.00724904       0.00000000
Si      -2.77307928      -2.62163115      -0.08203624       0.00000000
Si       2.64868884       0.02598255       2.81610040       0.00000000
Si      -0.06639804      -2.68827354       2.80889274       0.00000000
Si      -2.64497472       2.86524810       0.07442164       0.00000000
Si      -0.06594192       2.74216086       2.80903069       0.00000000
