10
Lattice="16.28999089631971 0.0 0.0 0.0 16.28999089631971 0.0 0.0 0.0 34.48637585096406" Properties=species:S:1:pos:R:3:initial_magmoms:R:1 pbc="T T T"
Si       1.35806472      -1.35635427      -1.36197120       0.00000000
Si      -1.35778779       1.35961227      -1.36141942       0.00000000
Si       1.36500426       1.35097857       1.37773149       0.00000000
Si      -1.35993807      -1.35425286       1.38549092       0.00000000
Si      -0.12347820       2.67418269       2.68055852       0.00000000
Si       2.71482624      -2.71052568      -0.00193124       0.00000000
Si      -2.71502172      -2.71062342       0.00082767       0.00000000
Si       0.00040725      -2.71319724      -2.71897636       0.00000000
Si      -2.71463076       0.00136836      -2.71887291       0.00000000
Si       2.71656927       2.71718829      -0.00027589       0.00000000
