10
Lattice="16.28999089631971 0.0 0.0 0.0 16.28999089631971 0.0 0.0 0.0 34.48637585096406" Properties=species:S:1:pos:R:3:initial_magmoms:R:1 pbc="T T T"
Si       0.61170579      -1.89586278      -1.30365471       0.00000000
Si      -1.09421559       1.31432607       1.67214184       0.00000000
Si       2.18251791       1.27560474       0.27816726       0.00000000
Si      -2.01899889       0.81484209      -1.41049356       0.00000000
Si       1.13026536      -2.64863997       0.94089232       0.00000000
Si       0.60955551       3.07962450       0.35655484       0.00000000
Si       2.09518722      -0.74148822      -2.77222336       0.00000000
Si      -0.72435114       1.96232598      -2.99100505       0.00000000
Si       3.72995388       0.35564328      -1.44867000       0.00000000
Si       2.77762419       1.65925053       2.63207065       0.00000000
