10
Lattice="16.28999089631971 0.0 0.0 0.0 16.28999089631971 0.0 0.0 0.0 34.48637585096406" Properties=species:S:1:pos:R:3:initial_magmoms:R:1 pbc="T T T"
Si      -1.25910297       1.40256900      -1.33307160       0.00000000
Si      -1.29464775      -1.14748389       1.58051149       0.00000000
Si       1.48848246      -1.32320412      -1.30282703       0.00000000
Si       0.75512295       1.91695833       1.19522948       0.00000000
Si       0.72435114      -1.96232598       2.99100505       0.00000000
Si      -2.59356348       0.04486266      -2.68724888       0.00000000
Si      -2.63679714      -2.64984543       0.16425870       0.00000000
Si       1.33390665       1.11729852       3.34755989       0.00000000
Si       0.12347820      -2.67418269      -2.68055852       0.00000000
Si      -2.63590119       2.77640244       0.06645528       0.00000000
