10
Lattice="16.28999089631971 0.0 0.0 0.0 16.28999089631971 0.0 0.0 0.0 34.48637585096406" Properties=species:S:1:pos:R:3:initial_magmoms:R:1 pbc="T T T"
Si       0.73756233      -1.98500166      -0.97293018       0.00000000
Si      -2.18289258       0.83839743      -0.02862371       0.00000000
Si       1.33902171       0.17760987       1.91496055       0.00000000
Si       1.05277383       1.56032136      -1.46460271       0.00000000
Si      -1.65498255       2.80466559       1.34965956       0.00000000
Si       2.03774868       2.45615733       1.86405863       0.00000000
Si       3.17524680      -1.27982385       1.43887586       0.00000000
Si       3.35772738       1.00110195      -1.34500390       0.00000000
Si       3.37424544      -1.36816452      -1.00789938       0.00000000
Si      -2.81906595       1.21539690      -2.42453152       0.00000000
