10
Lattice="16.28999089631971 0.0 0.0 0.0 16.28999089631971 0.0 0.0 0.0 34.48637585096406" Properties=species:S:1:pos:R:3:initial_magmoms:R:1 pbc="T T T"
Si      -2.06480637       1.07722512      -0.12290951       0.00000000
Si       1.09421559      -1.31432607      -1.67214184       0.00000000
Si       0.63617337      -0.37699947       2.39590781       0.00000000
Si       1.70377110       1.76529843      -1.31558700       0.00000000
Si      -0.92478330      -0.49948398      -3.08263540       0.00000000
Si      -2.43548532       0.94464081       2.22295854       0.00000000
Si       3.27673350      -0.03872133      -1.39397458       0.00000000
Si      -2.80020213       0.70491717      -2.35638641       0.00000000
Si      -1.48457286      -0.79847064       3.50367980       0.00000000
Si       2.81906595      -1.21539690       2.42453152       0.00000000
