10
Lattice="16.28999089631971 0.0 0.0 0.0 16.28999089631971 0.0 0.0 0.0 34.48637585096406" Properties=species:S:1:pos:R:3:initial_magmoms:R:1 pbc="T T T"
Si      -1.28042658      -1.11635370       1.64872558       0.00000000
Si       1.98850401       0.99502578       0.83812286       0.00000000
Si      -1.27747809       1.91980908      -0.60571904       0.00000000
Si       0.49500423      -2.11732533      -1.09435678       0.00000000
Si      -1.12809879       1.17133245      -2.88178664       0.00000000
Si      -2.25596952      -0.87535944      -2.32603838       0.00000000
Si      -0.81702495      -3.21880626       0.61951360       0.00000000
Si       2.77803144      -2.23669845      -0.34603649       0.00000000
Si      -0.15047073       3.52807191       0.74373360       0.00000000
Si       1.53557685       0.69708168       3.21240771       0.00000000
