10
Lattice="16.28999089631971 0.0 0.0 0.0 16.28999089631971 0.0 0.0 0.0 34.48637585096406" Properties=species:S:1:pos:R:3:initial_magmoms:R:1 pbc="T T T"
Si       1.34620560       1.33105590       1.35732244       0.00000000
Si       1.45819935      -1.30289049      -1.26796819       0.00000000
Si      -1.36990755      -1.37798739       1.35183910       0.00000000
Si      -1.22140791       1.48380723      -1.40796916       0.00000000
Si      -2.05086213      -0.37427904      -2.57205225       0.00000000
Si      -0.39247497      -2.23948404      -2.50711230       0.00000000
Si      -0.00925272       2.69646741       2.71325852       0.00000000
Si       2.70322776      -0.01829367       2.71405171       0.00000000
Si       2.72152143       2.69923671      -0.03506922       0.00000000
Si      -2.74045041       2.69746110      -0.02728908       0.00000000
