10
Lattice="16.28999089631971 0.0 0.0 0.0 16.28999089631971 0.0 0.0 0.0 34.48637585096406" Properties=species:S:1:pos:R:3:initial_magmoms:R:1 pbc="T T T"
Si       1.36000323      -1.35567009       1.36207466       0.00000000
Si      -1.35718506       1.35884664       1.36359206       0.00000000
Si       1.36990755       1.37798739      -1.35183910       0.00000000
Si      -1.35700587      -1.37679822      -1.36813047       0.00000000
Si      -2.57903280       0.12308724      -2.73460905       0.00000000
Si       2.71611315       2.70904329       0.00548334       0.00000000
Si      -2.71531494       2.71515204       0.00769047       0.00000000
Si       2.71463076      -2.71617831       0.00706971       0.00000000
Si      -2.71524978      -2.71580364       0.00631101       0.00000000
Si      -2.71454931       0.00076563       2.71983852       0.00000000
