10
Lattice="16.28999089631971 0.0 0.0 0.0 16.28999089631971 0.0 0.0 0.0 34.48637585096406" Properties=species:S:1:pos:R:3:initial_magmoms:R:1 pbc="T T T"
Si       0.25627428       0.36344619      -2.27408777       0.00000000
Si       0.82945422       1.85808627       1.16408309       0.00000000
Si      -1.89807822      -0.88062111       1.18928230       0.00000000
Si       1.65838716      -1.86520500       0.06493995       0.00000000
Si       2.05086213       0.37427904       2.57205225       0.00000000
Si      -1.17454158      -1.31711166      -3.06534362       0.00000000
Si      -0.67605129      -2.38050657       2.55576088       0.00000000
Si       3.50906148      -0.92861145       1.30408406       0.00000000
Si       0.74689650      -3.74586921       1.11486066       0.00000000
Si       2.38405779      -0.24876459      -3.17763132       0.00000000
