10
Lattice="16.28999089631971 0.0 0.0 0.0 16.28999089631971 0.0 0.0 0.0 34.48637585096406" Properties=species:S:1:pos:R:3:initial_magmoms:R:1 pbc="T T T"
Si      -1.35790182      -1.35713619       1.35745348       0.00000000
Si      -1.35754344       1.35767376      -1.35762592       0.00000000
Si       1.35806472       1.35738054       1.35741900       0.00000000
Si       1.35782037      -1.35782037      -1.35745348       0.00000000
Si      -2.71265967      -0.00114030      -2.71470005       0.00000000
Si      -0.00003258      -2.71339272      -2.71473454       0.00000000
Si      -2.71715571       0.00229689       2.71218254       0.00000000
Si      -0.00017919       2.71575477      -2.71387238       0.00000000
Si      -2.71505430       2.71464705       0.00000000       0.00000000
Si      -2.71474479      -2.71538010       0.00000000       0.00000000
