10
Lattice="16.28999089631971 0.0 0.0 0.0 16.28999089631971 0.0 0.0 0.0 34.48637585096406" Properties=species:S:1:pos:R:3:initial_magmoms:R:1 pbc="T T T"
Si      -1.35812988       1.35630540      -1.35590160       0.00000000
Si       1.35790182       1.35640314       1.35683273       0.00000000
Si      -1.35736425      -1.35808101       1.35624646       0.00000000
Si       1.35718506      -1.35884664      -1.36359206       0.00000000
Si      -2.71208952       2.71285515      -0.00093113       0.00000000
Si       0.00060273       2.71450044       2.71359649       0.00000000
Si      -2.71487511      -0.00110772       2.71387238       0.00000000
Si       2.71524978      -0.00043983       2.71387238       0.00000000
Si      -2.71248048      -2.71689507      -0.00082767       0.00000000
Si       0.00017919      -2.71575477       2.71387238       0.00000000
