10
Lattice="16.28999089631971 0.0 0.0 0.0 16.28999089631971 0.0 0.0 0.0 34.48637585096406" Properties=species:S:1:pos:R:3:initial_magmoms:R:1 pbc="T T T"
Si      -1.59013206      -1.66363254      -0.62875596       0.00000000
Si       0.53351379       1.31201289      -1.93489368       0.00000000
Si      -1.23453765       1.38543192       1.53664479       0.00000000
Si       2.00943666      -1.01900466       0.92247658       0.00000000
Si       1.48152663      -2.98527282      -0.45580668       0.00000000
Si      -0.63921960      -3.40674399       0.65196530       0.00000000
Si      -1.21945311      -1.53104823      -2.97462401       0.00000000
Si       0.74209095       3.47486877      -1.08090708       0.00000000
Si      -0.54053478       3.59727183       0.91995908       0.00000000
Si      -3.71382189      -0.82468125      -0.11111517       0.00000000
