10
Lattice="16.28999089631971 0.0 0.0 0.0 16.28999089631971 0.0 0.0 0.0 34.48637585096406" Properties=species:S:1:pos:R:3:initial_magmoms:R:1 pbc="T T T"
Si      -0.15193683      -2.05884423      -1.13470586       0.00000000
Si       1.63522278      -1.12832685       1.34083104       0.00000000
Si      -2.16754740       0.09614358       1.09770196       0.00000000
Si       1.30425885       2.04286374      -1.03338483       0.00000000
Si      -1.95897024       2.25899946       1.95168856       0.00000000
Si      -0.73072053      -1.25918442      -3.28703626       0.00000000
Si       3.69936126      -0.33655140       0.58106127       0.00000000
Si      -3.93986682      -0.07666074      -0.41125026       0.00000000
Si       1.36251189      -1.02244185       3.65538545       0.00000000
Si       2.55788838       0.94711689      -2.99810925       0.00000000
