10
Lattice="16.28999089631971 0.0 0.0 0.0 16.28999089631971 0.0 0.0 0.0 34.48637585096406" Properties=species:S:1:pos:R:3:initial_magmoms:R:1 pbc="T T T"
Si      -2.08389825       0.36523809       0.92961527       0.00000000
Si       0.05507649      -2.16780804       1.02400453       0.00000000
Si       1.64574612       1.44005229       1.02124562       0.00000000
Si      -0.41287005       0.39623796      -2.42539368       0.00000000
Si      -3.21090561      -1.24302474      -0.41983737       0.00000000
Si       1.64126637       1.60867008      -2.72508046       0.00000000
Si      -1.93342752      -3.16283382       0.18588167       0.00000000
Si       1.86064380      -3.26953332       0.09369954       0.00000000
Si       3.27986118       0.04772970      -1.91099461       0.00000000
Si      -2.00450079      -0.44760033       3.20140655       0.00000000
