10
Lattice="16.28999089631971 0.0 0.0 0.0 16.28999089631971 0.0 0.0 0.0 34.48637585096406" Properties=species:S:1:pos:R:3:initial_magmoms:R:1 pbc="T T T"
Si      -1.57341852       1.17097407      -1.24875237       0.00000000
Si       1.16667351      -1.56331872      -1.27096161       0.00000000
Si      -1.12738203      -1.66459365       1.22737080       0.00000000
Si       1.29780801       1.14365574       1.70176565       0.00000000
Si      -0.20528658       2.49712282      -2.61303416       0.00000000
Si       2.51180397      -0.21730860      -2.61631037       0.00000000
Si       2.61244359       2.59506951       0.28302984       0.00000000
Si       2.39948442      -2.93164614       0.16787977       0.00000000
Si      -2.41750116      -0.54200088       2.90203015       0.00000000
Si      -2.90704824       2.52062323       0.27647743       0.00000000
