10
Lattice="16.28999089631971 0.0 0.0 0.0 16.28999089631971 0.0 0.0 0.0 34.48637585096406" Properties=species:S:1:pos:R:3:initial_magmoms:R:1 pbc="T T T"
Si       1.69243326       0.80391150       1.36904233       0.00000000
Si       1.22984613       0.51173406      -1.96179307       0.00000000
Si      -0.89539614      -1.82151522       1.37933307       0.00000000
Si      -1.78580754       1.76445135      -0.12246119       0.00000000
Si       0.31978899       2.11134690       2.78087052       0.00000000
Si       2.89421172       2.30103973       0.00313826       0.00000000
Si      -2.41443864      -0.60786135       2.76001314       0.00000000
Si      -0.50207409       0.61183611      -3.63638345       0.00000000
Si       1.29236715       3.16384610      -1.64675985       0.00000000
Si      -1.01289591       3.48035917       1.35955513       0.00000000
