10
Lattice="16.28999089631971 0.0 0.0 0.0 16.28999089631971 0.0 0.0 0.0 34.48637585096406" Properties=species:S:1:pos:R:3:initial_magmoms:R:1 pbc="T T T"
Si       0.77291163       1.71590782       1.48201631       0.00000000
Si      -0.22819032       0.48872168      -2.41328896       0.00000000
Si       1.78580754      -1.76445135       0.12246119       0.00000000
Si      -1.96351515      -1.03692366       1.26821791       0.00000000
Si       2.10559653       0.34689555       2.90333171       0.00000000
Si       3.07817469       1.39939475      -1.52429866       0.00000000
Si       3.01565367      -1.25271729      -1.83933188       0.00000000
Si      -0.62863110      -2.37231270       2.88247433       0.00000000
Si       1.88876034       3.28253993       0.12611675       0.00000000
Si       3.47824080      -0.96053985       1.49150352       0.00000000
