10
Lattice="16.28999089631971 0.0 0.0 0.0 16.28999089631971 0.0 0.0 0.0 34.48637585096406" Properties=species:S:1:pos:R:3:initial_magmoms:R:1 pbc="T T T"
Si       1.35610992       1.35809730       1.35724657       0.00000000
Si       1.35444834      -1.35860392      -1.35845359       0.00000000
Si      -1.35917244      -1.35698306       1.35728105       0.00000000
Si      -1.36039419       1.35726651      -1.36279888       0.00000000
Si       2.71309950       0.00084708       2.71459659       0.00000000
Si       2.71332756      -2.71509418       0.00248302       0.00000000
Si       0.00374670      -2.70763325      -2.72093174       0.00000000
Si      -0.00162900      -2.71443901       2.71452762       0.00000000
Si      -0.00171045       2.71533123       2.71459659       0.00000000
Si      -2.71648782      -2.71413958       0.00051730       0.00000000
