10
Lattice="16.28999089631971 0.0 0.0 0.0 16.28999089631971 0.0 0.0 0.0 34.48637585096406" Properties=species:S:1:pos:R:3:initial_magmoms:R:1 pbc="T T T"
Si       1.60937055       1.14503208       1.33958953       0.00000000
Si      -1.31463558      -1.45141377       1.41873581       0.00000000
Si       1.24561485      -1.43942433      -1.52909227       0.00000000
Si      -1.45976319       1.26649847      -1.50236532       0.00000000
Si      -2.61244359      -2.59506951      -0.28302984       0.00000000
Si       2.59375896       2.71508672      -0.07293873       0.00000000
Si       2.49981453      -2.86945827      -0.18005347       0.00000000
Si       2.61304632      -0.09644921      -2.89647784       0.00000000
Si      -2.87686287       2.64114641       0.04666009       0.00000000
Si      -0.10148670       2.62114229      -2.89578811       0.00000000
