10
Lattice="16.28999089631971 0.0 0.0 0.0 16.28999089631971 0.0 0.0 0.0 34.48637585096406" Properties=species:S:1:pos:R:3:initial_magmoms:R:1 pbc="T T T"
Si       1.35527913      -1.35899325      -1.36121250       0.00000000
Si      -1.35839052       1.35694071      -1.36117802       0.00000000
Si       1.34693865       1.35402480       1.38193883       0.00000000
Si      -1.35156501      -1.36620972       1.37800738       0.00000000
Si       2.71347417      -2.71668330      -0.00051730       0.00000000
Si       2.71567332       2.71454931      -0.00079319       0.00000000
Si       2.71402803      -0.00094482      -2.71873496       0.00000000
Si      -0.00138465       2.71487511      -2.71859701       0.00000000
Si      -2.71854036       2.71516833      -0.00010346       0.00000000
Si      -2.71656927      -2.71718829       0.00027589       0.00000000
