10
Lattice="16.28999089631971 0.0 0.0 0.0 16.28999089631971 0.0 0.0 0.0 34.48637585096406" Properties=species:S:1:pos:R:3:initial_magmoms:R:1 pbc="T T T"
Si      -1.35819504       1.35769005      -1.36069521       0.00000000
Si       1.35798327      -1.35904212      -1.36035034       0.00000000
Si       1.35436689       1.37244879       1.37131702       0.00000000
Si      -1.37492487      -1.35412254       1.36952372       0.00000000
Si       2.62448190      -0.05338233       2.78105188       0.00000000
Si      -2.71521720      -2.71103067      -0.00113805       0.00000000
Si       2.71643895      -2.71189404      -0.00513847       0.00000000
Si      -2.71347417       2.71668330       0.00051730       0.00000000
Si       0.00011403      -2.71370223      -2.71828664       0.00000000
Si      -2.71469592       0.00078192      -2.71828664       0.00000000
