10
Lattice="16.28999089631971 0.0 0.0 0.0 16.28999089631971 0.0 0.0 0.0 34.48637585096406" Properties=species:S:1:pos:R:3:initial_magmoms:R:1 pbc="T T T"
Si       1.87129746       0.87340464       1.14094790       0.00000000
Si      -0.06999813      -2.14975872       1.00286437       0.00000000
Si      -1.83622509       1.45743372       0.47608468       0.00000000
Si       0.19899864      -0.08834067      -2.44677525       0.00000000
Si      -2.43768447      -0.70517781      -2.41180604       0.00000000
Si      -2.55671550       0.41871816       2.42987691       0.00000000
Si       0.18248058       2.28092580      -2.78387976       0.00000000
Si      -3.17524680       1.27982385      -1.43887586       0.00000000
Si       2.73222396      -0.72169587      -2.42529022       0.00000000
Si       1.42975701      -3.45855922      -0.23564554       0.00000000
