10
Lattice="16.28999089631971 0.0 0.0 0.0 16.28999089631971 0.0 0.0 0.0 34.48637585096406" Properties=species:S:1:pos:R:3:initial_magmoms:R:1 pbc="T T T"
Si       1.96654509       0.02821428      -1.36024688       0.00000000
Si       0.54465615       2.00805201       1.19395349       0.00000000
Si      -1.98047304      -0.31117158      -1.32565703       0.00000000
Si      -1.15619904      -1.30025151       2.06321756       0.00000000
Si       1.19967705       1.97664489      -2.46191478       0.00000000
Si      -1.39070988      -2.57393403      -1.90351107       0.00000000
Si      -2.12721336       0.66215592       2.91068623       0.00000000
Si      -1.09472058       3.50770941       0.54629899       0.00000000
Si      -0.76173669       3.17949849      -1.78111885       0.00000000
Si      -2.58468543       1.75770729      -2.36969815       0.00000000
