10
Lattice="16.28999089631971 0.0 0.0 0.0 16.28999089631971 0.0 0.0 0.0 34.48637585096406" Properties=species:S:1:pos:R:3:initial_magmoms:R:1 pbc="T T T"
Si       1.26956115      -1.46530179       1.26023979       0.00000000
Si      -1.45819935       1.30289049       1.26796819       0.00000000
Si      -1.85067432      -0.93659355      -1.23914411       0.00000000
Si       1.98112464       0.07809426      -2.36318164       0.00000000
Si      -0.30962403      -1.00825326      -3.01531938       0.00000000
Si       2.59853193      -0.07353306       2.62239377       0.00000000
Si      -0.11199375       2.63394639       2.62529062       0.00000000
Si      -0.11347614      -2.79127521       2.62687700       0.00000000
Si      -2.82810690      -0.07509690       2.61980729       0.00000000
Si      -3.50906148       0.92861145      -1.30408406       0.00000000
