10
Lattice="16.28999089631971 0.0 0.0 0.0 16.28999089631971 0.0 0.0 0.0 34.48637585096406" Properties=species:S:1:pos:R:3:initial_magmoms:R:1 pbc="T T T"
Si       1.34324082       1.33771851       1.38248371       0.00000000
Si      -1.37276644      -1.37647242       1.37613821       0.00000000
Si      -1.36691834       1.41345072      -1.39468155       0.00000000
Si       1.35135324      -1.31026986      -1.51489422       0.00000000
Si      -0.66380121      -2.27690217      -2.68340206       0.00000000
Si      -2.37160734      -0.31960980      -2.68573162       0.00000000
Si       2.70148473       2.67672393       0.00804223       0.00000000
Si       2.68408701      -2.73655710      -0.00243129       0.00000000
Si      -0.01117494       2.69547372       2.73893709       0.00000000
Si      -2.74676783       2.69013060       0.01752599       0.00000000
