10
Lattice="16.28999089631971 0.0 0.0 0.0 16.28999089631971 0.0 0.0 0.0 34.48637585096406" Properties=species:S:1:pos:R:3:initial_magmoms:R:1 pbc="T T T"
Si      -1.25340147       1.66996935       1.07221651       0.00000000
Si      -1.36089918      -1.31351157      -1.47215524       0.00000000
Si       1.32496344       1.28125737      -1.56013003       0.00000000
Si       0.60932745      -1.06551261       2.21419900       0.00000000
Si       1.94458617       2.59084305       1.68497078       0.00000000
Si       1.53736875       0.83631231       3.28434633       0.00000000
Si       3.15354852       2.08388196      -0.31934402       0.00000000
Si      -2.43589257      -2.92807863      -0.10256254       0.00000000
Si       0.01769094      -2.62262484      -2.95493228       0.00000000
Si      -2.84646573       2.80186371      -0.16074109       0.00000000
