10
Lattice="16.28999089631971 0.0 0.0 0.0 16.28999089631971 0.0 0.0 0.0 34.48637585096406" Properties=species:S:1:pos:R:3:initial_magmoms:R:1 pbc="T T T"
Si      -0.27271089       0.10588500       2.31455441       0.00000000
Si       2.06413848       0.79177545      -0.75976977       0.00000000
Si       0.38090907      -2.35089135      -0.20002109       0.00000000
Si      -1.63522278       1.12832685      -1.34083104       0.00000000
Si      -1.78715961      -0.93051738      -2.47553690       0.00000000
Si      -2.32684731      -1.10654712       2.61424118       0.00000000
Si       1.36588392      -1.45505538       3.12864025       0.00000000
Si      -0.21419721      -2.73453714      -2.55392448       0.00000000
Si       1.93070709       3.10480884      -1.02817738       0.00000000
Si       3.78235881       0.46258713       0.83294990       0.00000000
