10
Lattice="16.28999089631971 0.0 0.0 0.0 16.28999089631971 0.0 0.0 0.0 34.48637585096406" Properties=species:S:1:pos:R:3:initial_magmoms:R:1 pbc="T T T"
Si       0.08039115       2.14979130      -0.97110240       0.00000000
Si      -0.33298389       0.32821092       2.32741783       0.00000000
Si      -1.82294874      -1.42179120      -0.58857931       0.00000000
Si       1.96141374      -1.20285360      -0.68079593       0.00000000
Si       1.30639284      -1.17144648       2.97507233       0.00000000
Si      -3.29652585      -1.22152194       1.18419384       0.00000000
Si       0.76173669      -3.17949849       1.78111885       0.00000000
Si      -1.21873635      -3.49067007       0.45546182       0.00000000
Si       1.47040056      -2.13781815      -2.80212306       0.00000000
Si       3.74165010       0.31951206      -0.78277220       0.00000000
