10
Lattice="16.28999089631971 0.0 0.0 0.0 16.28999089631971 0.0 0.0 0.0 34.48637585096406" Properties=species:S:1:pos:R:3:initial_magmoms:R:1 pbc="T T T"
Si       1.84787244       1.15745337      -0.89799124       0.00000000
Si      -1.11566952      -0.39227949      -2.04121524       0.00000000
Si       0.81537966      -1.68810012       1.46639601       0.00000000
Si      -2.12778351       0.61221078       0.90354355       0.00000000
Si       3.48724917      -0.34220403      -0.25033674       0.00000000
Si      -0.72567063      -1.61644041       3.24257127       0.00000000
Si      -3.55859937      -1.06834707       0.11228770       0.00000000
Si      -2.39940297       1.62792486      -2.39345928       0.00000000
Si      -2.73313620       2.58157404      -0.30134212       0.00000000
Si       3.10612833      -0.60175260       2.11853374       0.00000000
