10
Lattice="16.28999089631971 0.0 0.0 0.0 16.28999089631971 0.0 0.0 0.0 34.48637585096406" Properties=species:S:1:pos:R:3:initial_magmoms:R:1 pbc="T T T"
Si       1.42519581       1.25012718       1.35459111       0.00000000
Si      -1.25419968       1.43003394      -1.34903880       0.00000000
Si       1.47360969      -1.30794039      -1.34148628       0.00000000
Si      -1.39587381      -1.29142233       1.45091162       0.00000000
Si       1.39470093      -0.33598125       3.13639969       0.00000000
Si       0.19719045      -2.42331669       2.68386921       0.00000000
Si      -2.60045415       0.05708016      -2.71928674       0.00000000
Si      -2.71277370      -2.65725738       0.06490340       0.00000000
Si       0.11611512      -2.65712706      -2.71487248       0.00000000
Si      -2.49981453       2.86945827       0.18005347       0.00000000
