10
Lattice="16.28999089631971 0.0 0.0 0.0 16.28999089631971 0.0 0.0 0.0 34.48637585096406" Properties=species:S:1:pos:R:3:initial_magmoms:R:1 pbc="T T T"
Si      -1.94808852       1.27479024       0.67851982       0.00000000
Si      -0.67085478      -2.00785653      -1.22005969       0.00000000
Si       1.63937673       0.93322152      -1.66586532       0.00000000
Si       1.38036573      -1.42193781       1.72845812       0.00000000
Si       2.93382900      -1.98389394      -0.12490972       0.00000000
Si       0.96852195      -3.50751393      -0.57240519       0.00000000
Si       2.85050565       2.40539769      -0.24940561       0.00000000
Si       0.51290694       1.85174946      -3.49367874       0.00000000
Si       3.22506162      -0.80047431      -2.22740729       0.00000000
Si      -3.68000874       1.37489229      -0.99607055       0.00000000
