10
Lattice="16.28999089631971 0.0 0.0 0.0 16.28999089631971 0.0 0.0 0.0 34.48637585096406" Properties=species:S:1:pos:R:3:initial_magmoms:R:1 pbc="T T T"
Si       1.43354836      -1.12196790      -1.46219009       0.00000000
Si       1.61857507       1.17881608       1.23466123       0.00000000
Si      -0.76408245       1.66999867      -1.63220801       0.00000000
Si      -1.37849238      -1.82079261       1.27507583       0.00000000
Si      -2.43411696      -0.17366676       2.55253468       0.00000000
Si       0.15967458      -1.07184357      -3.39287643       0.00000000
Si       0.28321794       2.53947742       2.55996305       0.00000000
Si      -2.43398664       2.66943904      -0.25223491       0.00000000
Si       2.34482237       3.00849910      -0.16152924       0.00000000
Si      -2.15054064      -0.62541612      -3.13081431       0.00000000
