10
Lattice="16.28999089631971 0.0 0.0 0.0 16.28999089631971 0.0 0.0 0.0 34.48637585096406" Properties=species:S:1:pos:R:3:initial_magmoms:R:1 pbc="T T T"
Si      -1.82664657      -0.12323548       1.52243640       0.00000000
Si       0.35647407       2.25713263      -0.71652383       0.00000000
Si       2.24619552      -0.34482509       0.80963710       0.00000000
Si      -1.00831842      -0.18486055      -2.25061663       0.00000000
Si       1.85287347      -2.63339320       1.32276017       0.00000000
Si      -0.69862923       0.90977369       3.36056126       0.00000000
Si       1.74185712       0.47046986      -3.24382481       0.00000000
Si      -1.87556544       3.03107053      -1.11191035       0.00000000
Si      -2.22472530      -2.41403206       1.85143661       0.00000000
Si       0.60383772       3.64663705       1.17091657       0.00000000
