10
Lattice="16.28999089631971 0.0 0.0 0.0 16.28999089631971 0.0 0.0 0.0 34.48637585096406" Properties=species:S:1:pos:R:3:initial_magmoms:R:1 pbc="T T T"
Si      -1.22671845       1.96432965       0.01882957       0.00000000
Si      -0.82777635      -0.84272731       2.04266367       0.00000000
Si      -0.73907730      -1.62675917      -1.57223475       0.00000000
Si       2.15499500      -0.33569943      -0.98627641       0.00000000
Si       1.09378783      -1.08761325      -2.98928073       0.00000000
Si      -0.28852848      -3.42812366      -0.09680331       0.00000000
Si       0.41046322      -2.78115002       2.09556580       0.00000000
Si      -3.07229400      -1.15434198       1.32920913       0.00000000
Si      -3.19705911       1.25685495       1.23368181       0.00000000
Si      -1.34043894       2.90649438      -2.12970733       0.00000000
