10
Lattice="16.28999089631971 0.0 0.0 0.0 16.28999089631971 0.0 0.0 0.0 34.48637585096406" Properties=species:S:1:pos:R:3:initial_magmoms:R:1 pbc="T T T"
Si      -1.58931756      -0.30302658       1.67917706       0.00000000
Si      -0.47071584       2.29514697      -0.32510325       0.00000000
Si      -0.12707829      -1.53111013      -1.81274287       0.00000000
Si       1.81453563      -0.88320796       1.25709808       0.00000000
Si      -1.37402892      -2.58317765       2.18481659       0.00000000
Si      -2.92348485       2.06982369      -0.74649251       0.00000000
Si      -2.49636105       0.56847213      -2.62172473       0.00000000
Si       2.08457007       0.78667668       2.93648206       0.00000000
Si       0.01242927      -0.28776285       3.68342289       0.00000000
Si       0.93618630      -3.02960510       1.92275447       0.00000000
