10
Lattice="16.28999089631971 0.0 0.0 0.0 16.28999089631971 0.0 0.0 0.0 34.48637585096406" Properties=species:S:1:pos:R:3:initial_magmoms:R:1 pbc="T T T"
Si       1.23823957      -1.93842270       0.05290213       0.00000000
Si       0.82777635       0.84272731      -2.04266367       0.00000000
Si      -2.24451765      -0.31161467      -0.71345454       0.00000000
Si       0.12707829       1.53111013       1.81274287       0.00000000
Si      -2.36928276       2.09958226      -0.80898186       0.00000000
Si       0.53924787      -2.58539634      -2.13946698       0.00000000
Si      -0.39894210       2.80705696      -2.02383410       0.00000000
Si       1.94161392       0.64790217       3.06984095       0.00000000
Si       0.08869905      -0.78403185      -3.61489842       0.00000000
Si       3.52671074      -1.46661543      -0.06135130       0.00000000
