10
Lattice="16.28999089631971 0.0 0.0 0.0 16.28999089631971 0.0 0.0 0.0 34.48637585096406" Properties=species:S:1:pos:R:3:initial_magmoms:R:1 pbc="T T T"
Si      -1.66990419       0.99944037       1.37997310       0.00000000
Si       2.07214080       1.07443953      -0.74694083       0.00000000
Si       0.76408245      -1.66999867       1.63220801       0.00000000
Si      -1.60174683      -0.01526373      -2.00424583       0.00000000
Si      -1.38645819      -2.29541480      -1.49860630       0.00000000
Si       1.80210636      -0.59544511      -2.42632482       0.00000000
Si       0.92375703      -2.74184225      -1.76066842       0.00000000
Si      -0.18709065       2.17347696       2.72584402       0.00000000
Si       2.19763081      -2.79196658       0.17001793       0.00000000
Si      -2.70506853       2.43320472      -0.22243725       0.00000000
