10
Lattice="16.28999089631971 0.0 0.0 0.0 16.28999089631971 0.0 0.0 0.0 34.48637585096406" Properties=species:S:1:pos:R:3:initial_magmoms:R:1 pbc="T T T"
Si      -1.33705062      -1.33892397      -1.37273096       0.00000000
Si       1.37870415       1.37435472      -1.36604060       0.00000000
Si       1.17566559      -1.48509414       1.45605009       0.00000000
Si      -1.42900767       1.31958774       1.41345939       0.00000000
Si       2.14233278       0.29501190       2.69276670       0.00000000
Si       0.41177862       2.09987874       2.76001517       0.00000000
Si      -2.69273700      -2.69588260       0.01510504       0.00000000
Si      -2.69550630       0.01392795      -2.72794283       0.00000000
Si       0.01705563      -2.69834890      -2.72835666       0.00000000
Si       2.73062332      -2.70329292       0.01793293       0.00000000
