10
Lattice="16.28999089631971 0.0 0.0 0.0 16.28999089631971 0.0 0.0 0.0 34.48637585096406" Properties=species:S:1:pos:R:3:initial_magmoms:R:1 pbc="T T T"
Si      -0.45989928       0.86350032       2.14991636       0.00000000
Si      -1.84078629      -0.78029100      -1.34655578       0.00000000
Si       0.92053161       1.85574051      -1.37400695       0.00000000
Si       1.73055416      -1.80486684      -0.06724847       0.00000000
Si      -0.41177862      -2.09987874      -2.76001517       0.00000000
Si       1.65834222       1.57724667       2.73721967       0.00000000
Si       2.33787305       0.62825643      -2.76539505       0.00000000
Si       3.10113449       2.00368629       0.86050453       0.00000000
Si       0.76388697      -3.58497288      -1.30396509       0.00000000
Si       3.63440393      -0.70307640      -1.28199725       0.00000000
