10
Lattice="16.28999089631971 0.0 0.0 0.0 16.28999089631971 0.0 0.0 0.0 34.48637585096406" Properties=species:S:1:pos:R:3:initial_magmoms:R:1 pbc="T T T"
Si       0.82378530       1.90026108      -1.01269299       0.00000000
Si       1.79147646      -1.49376042       0.14318751       0.00000000
Si      -0.57440169       0.76227426       2.13505272       0.00000000
Si      -1.87129746      -0.87340464      -1.14094790       0.00000000
Si      -1.08216099       2.71119357      -2.07532229       0.00000000
Si      -1.94129559      -3.02316336      -0.13808353       0.00000000
Si      -2.47331070      -0.55039023       2.60741288       0.00000000
Si       1.24414875       3.33492138       0.80656781       0.00000000
Si       1.44225144      -2.90949174      -1.70493840       0.00000000
Si       2.83520934       1.28782224      -2.05421661       0.00000000
