10
Lattice="16.28999089631971 0.0 0.0 0.0 16.28999089631971 0.0 0.0 0.0 34.48637585096406" Properties=species:S:1:pos:R:3:initial_magmoms:R:1 pbc="T T T"
Si      -1.95778107      -0.14203251      -1.29168793       0.00000000
Si       0.25159905      -2.21164443       0.75732124       0.00000000
Si       1.86894260       0.92846484      -1.13539559       0.00000000
Si       0.54708336       2.09145681       2.23568402       0.00000000
Si       2.41806058       2.28628521       0.74797542       0.00000000
Si      -1.15707870      -1.21666752      -3.25855050       0.00000000
Si      -0.81223569      -2.17106604       2.94610376       0.00000000
Si      -0.59437323      -3.66094944      -0.92440782       0.00000000
Si       3.31847567      -0.78740973      -1.80522484       0.00000000
Si       1.10757243       2.19214530      -2.99217759       0.00000000
