10
Lattice="16.28999089631971 0.0 0.0 0.0 16.28999089631971 0.0 0.0 0.0 34.48637585096406" Properties=species:S:1:pos:R:3:initial_magmoms:R:1 pbc="T T T"
Si       1.35435060      -1.35795069      -1.35766040       0.00000000
Si       1.35593073       1.35715248       1.35821219       0.00000000
Si      -1.36029645      -1.35804843       1.35786732       0.00000000
Si      -1.36412460       1.35840681      -1.35948818       0.00000000
Si       2.69396903      -0.00654858      -2.72072138       0.00000000
Si      -2.69309538      -0.03336192      -2.72164216       0.00000000
Si       2.71101438      -2.71456560       0.00113805       0.00000000
Si       2.71147239       2.71608057       0.00310378       0.00000000
Si       2.71257018      -0.00057015       2.71532081       0.00000000
Si      -0.00244350       2.71443528       2.71549324       0.00000000
