10
Lattice="16.28999089631971 0.0 0.0 0.0 16.28999089631971 0.0 0.0 0.0 34.48637585096406" Properties=species:S:1:pos:R:3:initial_magmoms:R:1 pbc="T T T"
Si      -1.52414127       0.35269479       1.72680278       0.00000000
Si       2.26935990      -0.41480856       0.32748281       0.00000000
Si      -0.92804130      -1.90182492      -1.07014733       0.00000000
Si       0.40721742       1.75453074      -1.59937555       0.00000000
Si      -3.24236160       0.68188311       0.13408310       0.00000000
Si      -2.79077022       0.83365704      -2.21212982       0.00000000
Si       1.13132421      -3.24097695      -1.33307160       0.00000000
Si      -1.53736875      -0.83631231      -3.28434633       0.00000000
Si      -2.01398157      -1.71633069       2.66293597       0.00000000
Si      -1.59325974       2.92099248      -1.75959934       0.00000000
