10
Lattice="16.28999089631971 0.0 0.0 0.0 16.28999089631971 0.0 0.0 0.0 34.48637585096406" Properties=species:S:1:pos:R:3:initial_magmoms:R:1 pbc="T T T"
Si       0.56496978       2.15819694      -0.59913214       0.00000000
Si       1.61805312      -0.71187300       1.53057519       0.00000000
Si      -0.42036345      -1.43466030      -1.81926080       0.00000000
Si      -1.90493631      -0.21926340       1.40635519       0.00000000
Si      -1.81855044      -2.57264712       1.32848491       0.00000000
Si       0.15364728      -2.30736447       2.66248765       0.00000000
Si      -1.27773873       2.78254377      -1.96182756       0.00000000
Si      -1.24414875      -3.33492138      -0.80656781       0.00000000
Si       0.07462449       3.39791481       1.38014553       0.00000000
Si      -2.32630974      -0.62372781      -2.88189009       0.00000000
