10
Lattice="16.28999089631971 0.0 0.0 0.0 16.28999089631971 0.0 0.0 0.0 34.48637585096406" Properties=species:S:1:pos:R:3:initial_magmoms:R:1 pbc="T T T"
Si       0.75505779      -1.89095949       1.36867881       0.00000000
Si      -0.44385363      -0.76144347      -2.30145789       0.00000000
Si      -1.95462081       0.81746478       1.36262989       0.00000000
Si       1.79833455       1.87051554       0.12656852       0.00000000
Si       2.11022289      -0.55399032       2.75674586       0.00000000
Si      -0.62377668       2.17878750       2.75819429       0.00000000
Si       3.47316637       0.79926885       1.37701417       0.00000000
Si       0.74270997       3.51764139       1.40402736       0.00000000
Si       2.03794416      -3.37453866      -0.06865552       0.00000000
Si      -3.30972075       2.22746202      -0.02056079       0.00000000
