10
Lattice="16.28999089631971 0.0 0.0 0.0 16.28999089631971 0.0 0.0 0.0 34.48637585096406" Properties=species:S:1:pos:R:3:initial_magmoms:R:1 pbc="T T T"
Si      -1.35645201      -1.35773892       1.35979856       0.00000000
Si       1.35866745       1.35806472       1.35952267       0.00000000
Si      -1.36513458       1.36609569      -1.35176323       0.00000000
Si       1.36886499      -1.36668213      -1.35321166       0.00000000
Si       0.00135207       2.70494958      -2.70593016       0.00000000
Si      -2.71427238      -2.71275741       0.00179329       0.00000000
Si       2.71482813      -2.71321353       0.00475912       0.00000000
Si      -2.71414206       2.71474468       0.00472464       0.00000000
Si      -2.71409319       0.00034209       2.71697615       0.00000000
Si       2.71519595       2.71664263       0.00244853       0.00000000
