10
Lattice="16.28999089631971 0.0 0.0 0.0 16.28999089631971 0.0 0.0 0.0 34.48637585096406" Properties=species:S:1:pos:R:3:initial_magmoms:R:1 pbc="T T T"
Si      -1.35782037      -1.35501849      -1.35800527       0.00000000
Si       1.35736425      -1.35711990       1.35735003       0.00000000
Si      -1.35764118       1.35808101       1.35717759       0.00000000
Si       1.35645201       1.35773892      -1.35979856       0.00000000
Si       2.71358820      -0.00006516       2.71521735       0.00000000
Si      -2.71482624      -2.71427238      -0.00017243       0.00000000
Si      -2.71484253      -0.00566892      -2.71473454       0.00000000
Si      -2.71508688       0.00228060       2.71459659       0.00000000
Si       2.71573848      -2.71440270       0.00006897       0.00000000
Si       0.00009774      -2.71608057       2.71407930       0.00000000
