10
Lattice="16.28999089631971 0.0 0.0 0.0 16.28999089631971 0.0 0.0 0.0 34.48637585096406" Properties=species:S:1:pos:R:3:initial_magmoms:R:1 pbc="T T T"
Si       1.35343836      -1.35713619      -1.35783284       0.00000000
Si       1.36863693       1.33731126       1.36452320       0.00000000
Si      -1.36032903       1.35860229      -1.35755694       0.00000000
Si      -1.35848826      -1.36451556       1.37538641       0.00000000
Si      -0.01091430       2.58738957       2.75329033       0.00000000
Si       2.71257556       0.00047241      -2.71545875       0.00000000
Si       2.71466334      -2.71448415      -0.00013795       0.00000000
Si      -2.71598283      -2.71370223       0.00200021       0.00000000
Si      -0.00278559      -2.71419093      -2.71570016       0.00000000
Si       2.71515204       2.71605359       0.00327621       0.00000000
