10
Lattice="16.28999089631971 0.0 0.0 0.0 16.28999089631971 0.0 0.0 0.0 34.48637585096406" Properties=species:S:1:pos:R:3:initial_magmoms:R:1 pbc="T T T"
Si      -1.35749457      -1.34918667      -1.37338620       0.00000000
Si       1.35848826       1.36451556      -1.37538641       0.00000000
Si      -1.47360969       1.30794039       1.34148628       0.00000000
Si       1.30194567      -1.50408828       1.39300896       0.00000000
Si      -0.04841388       2.55806757       2.69607740       0.00000000
Si       2.72712519       2.70182682      -0.01086321       0.00000000
Si      -2.72622924      -2.70971118       0.00934581       0.00000000
Si       2.70673011      -2.73150720      -0.01496710       0.00000000
Si      -0.00156384      -2.70863604      -2.73435730       0.00000000
Si       2.71192662       0.00737937      -2.73321925       0.00000000
