10
Lattice="16.28999089631971 0.0 0.0 0.0 16.28999089631971 0.0 0.0 0.0 34.48637585096406" Properties=species:S:1:pos:R:3:initial_magmoms:R:1 pbc="T T T"
Si       1.37955123      -1.25007831      -1.38876713       0.00000000
Si       1.23390234       1.19026047       1.61686015       0.00000000
Si      -1.39598784      -1.39383756       1.31817348       0.00000000
Si      -1.34651511       1.48881382      -1.36831670       0.00000000
Si      -1.51627320       0.53493006       2.61006833       0.00000000
Si       2.52188748       2.69960228       0.07262835       0.00000000
Si       0.01091430      -2.58738957      -2.75329033       0.00000000
Si       2.67967242      -2.74727592       0.05748882       0.00000000
Si      -2.70795186       0.12904431      -2.75284200       0.00000000
Si      -2.82118365      -2.64396474      -0.03641763       0.00000000
