10
Lattice="16.28999089631971 0.0 0.0 0.0 16.28999089631971 0.0 0.0 0.0 34.48637585096406" Properties=species:S:1:pos:R:3:initial_magmoms:R:1 pbc="T T T"
Si      -2.16236948      -0.76126428       0.42359639       0.00000000
Si       1.84228986      -1.40066307      -0.28954777       0.00000000
Si      -0.42591019       1.25716446      -1.92813435       0.00000000
Si       0.92816022       1.52049231       1.60299662       0.00000000
Si      -2.08298831       2.68672599      -0.98224151       0.00000000
Si       1.84523835       1.63549971      -2.54399240       0.00000000
Si       2.85590253      -1.14463314       1.81270839       0.00000000
Si       3.12271644      -0.28430937      -1.93827335       0.00000000
Si      -3.54739415       1.09123452       0.14967095       0.00000000
Si       1.73756145       0.23530905       3.38294293       0.00000000
