10
Lattice="16.28999089631971 0.0 0.0 0.0 16.28999089631971 0.0 0.0 0.0 34.48637585096406" Properties=species:S:1:pos:R:3:initial_magmoms:R:1 pbc="T T T"
Si       1.34395758       1.33089300       1.38064214       0.00000000
Si       1.48023972      -1.26117180      -1.36165738       0.00000000
Si      -1.37123844      -1.38367260       1.36974444       0.00000000
Si      -1.23092616       1.38623013      -1.58993662       0.00000000
Si      -0.49673097      -2.02717647      -2.51856006       0.00000000
Si      -2.36639780      -0.55482111      -2.65069985       0.00000000
Si       2.68872966       2.69118945      -0.00617651       0.00000000
Si      -2.71150222       2.67476913       0.00042763       0.00000000
Si      -0.01000206       2.68744275       2.73561260       0.00000000
Si       2.70208746      -0.02541240       2.73654373       0.00000000
