10
Lattice="16.28999089631971 0.0 0.0 0.0 16.28999089631971 0.0 0.0 0.0 34.48637585096406" Properties=species:S:1:pos:R:3:initial_magmoms:R:1 pbc="T T T"
Si      -1.35709384       1.35664749      -1.35717759       0.00000000
Si       1.35751086      -1.35697329      -1.35762592       0.00000000
Si       1.35769005       1.35739683       1.35710862       0.00000000
Si      -1.35754018      -1.35951453       1.35655684       0.00000000
Si      -0.00210141      -2.71235016       2.71218254       0.00000000
Si      -2.71216187      -0.00043983       2.71566567       0.00000000
Si      -2.71569491       0.00149868      -2.71228600       0.00000000
Si       2.71487511       0.00110772      -2.71387238       0.00000000
Si      -2.71424965       2.71451673       0.00034486       0.00000000
Si       0.00278559       2.71396287      -2.71480351       0.00000000
