10
Lattice="16.28999089631971 0.0 0.0 0.0 16.28999089631971 0.0 0.0 0.0 34.48637585096406" Properties=species:S:1:pos:R:3:initial_magmoms:R:1 pbc="T T T"
Si      -1.61273348       1.04663250       1.35245296       0.00000000
Si      -1.62410390      -1.16188425      -1.32313952       0.00000000
Si       1.14572457       1.73643892      -1.24354492       0.00000000
Si       1.63527165      -1.32618519       1.38200780       0.00000000
Si      -2.25188792      -0.96275529       2.64807234       0.00000000
Si      -0.22524835      -2.35457289      -2.77822399       0.00000000
Si       2.47935429       0.38678976      -2.76877472       0.00000000
Si       2.92539078      -2.44877796      -0.29265155       0.00000000
Si      -0.70547103       2.61941801       2.82105609       0.00000000
Si       2.48155344       0.26072145       3.08591161       0.00000000
