10
Lattice="16.28999089631971 0.0 0.0 0.0 16.28999089631971 0.0 0.0 0.0 34.48637585096406" Properties=species:S:1:pos:R:3:initial_magmoms:R:1 pbc="T T T"
Si       1.73198538      -1.35246096       0.84343377       0.00000000
Si      -1.08080403       1.62230059       1.35972959       0.00000000
Si      -1.31547777      -1.93336236      -0.50677758       0.00000000
Si       0.77631624       1.31333272      -1.89654481       0.00000000
Si      -3.19654502      -0.76496211      -1.33827905       0.00000000
Si       3.01461111      -1.47486402      -1.15743239       0.00000000
Si      -1.87073450       3.12661205      -0.29806591       0.00000000
Si      -0.59606413      -1.62522072       3.23616883       0.00000000
Si      -2.80322297       1.52360600      -1.85140212       0.00000000
Si       2.24386605      -0.17602974      -3.05518423       0.00000000
