10
Lattice="16.28999089631971 0.0 0.0 0.0 16.28999089631971 0.0 0.0 0.0 34.48637585096406" Properties=species:S:1:pos:R:3:initial_magmoms:R:1 pbc="T T T"
Si       0.81956619       0.53507763      -2.12218930       0.00000000
Si       1.50866577       1.04495463       1.47039643       0.00000000
Si      -0.52742296      -2.19335076       0.72662835       0.00000000
Si      -2.02355099       1.18974015      -0.34162223       0.00000000
Si      -2.13295463       2.82465342       1.30210282       0.00000000
Si       0.33049152       2.85653295      -2.49474582       0.00000000
Si       2.22692445       3.12650712       0.27747754       0.00000000
Si      -1.07654094      -3.55117113      -1.15674267       0.00000000
Si      -1.95797965       2.38472568      -2.38049240       0.00000000
Si      -0.21766698      -0.69247161      -3.86520068       0.00000000
