10
Lattice="16.28999089631971 0.0 0.0 0.0 16.28999089631971 0.0 0.0 0.0 34.48637585096406" Properties=species:S:1:pos:R:3:initial_magmoms:R:1 pbc="T T T"
Si      -1.23823957       1.93842270      -0.05290213       0.00000000
Si       2.28847117       0.47180727      -0.11425343       0.00000000
Si      -0.06557134      -1.19498553       2.03887017       0.00000000
Si      -0.69899170      -0.64697364      -2.19236911       0.00000000
Si       2.77754584      -1.84964805       0.25830310       0.00000000
Si      -0.41046322       2.78115002      -2.09556580       0.00000000
Si       2.54762878       0.31299606      -2.51167864       0.00000000
Si      -2.11063423      -2.31951681       1.96665565       0.00000000
Si      -0.17497498       0.43992774       3.68259522       0.00000000
Si       1.16806451      -1.55398455      -3.20840728       0.00000000
