10
Lattice="16.28999089631971 0.0 0.0 0.0 16.28999089631971 0.0 0.0 0.0 34.49183129400761" Properties=species:S:1:pos:R:3:initial_magmoms:R:1 pbc="T T T"
Si      -1.35572710       1.35540945      -1.35915137       0.00000000
Si       1.35907470      -1.35904212      -1.35859950       0.00000000
Si      -1.37361515      -1.35830418       1.35621956       0.00000000
Si       1.36080144       1.36334268       1.36518745       0.00000000
Si      -0.00540828      -2.67943980       2.71471559       0.00000000
Si      -2.71210296       2.71010214       0.00206951       0.00000000
Si       2.71837746       2.70855459      -0.00244892       0.00000000
Si       0.00131949       2.71231758      -2.71595730       0.00000000
Si      -2.71372236      -0.00299736      -2.71592281       0.00000000
Si       2.71355562      -2.71702457       0.00117272       0.00000000
