10
Lattice="16.28999089631971 0.0 0.0 0.0 16.28999089631971 0.0 0.0 0.0 34.49183129400761" Properties=species:S:1:pos:R:3:initial_magmoms:R:1 pbc="T T T"
Si       1.51640352       1.81288152       0.02528253       0.00000000
Si      -1.50200642      -1.11749400       1.44851976       0.00000000
Si       1.78152327      -1.53031518      -0.31315151       0.00000000
Si      -1.32203939       0.09666486      -2.05212714       0.00000000
Si       2.02307139      -0.80549163      -2.50862678       0.00000000
Si       2.24362170       1.52876763      -2.18388601       0.00000000
Si      -1.64333390      -3.18686157       0.19770729       0.00000000
Si       0.69092406      -3.53375712       0.04925436       0.00000000
Si       0.16296516       3.55841108       0.59970981       0.00000000
Si      -0.92552124       2.62978985       2.44774867       0.00000000
