10
Lattice="16.28999089631971 0.0 0.0 0.0 16.28999089631971 0.0 0.0 0.0 34.49183129400761" Properties=species:S:1:pos:R:3:initial_magmoms:R:1 pbc="T T T"
Si       1.22274369      -1.35245777       1.53254535       0.00000000
Si      -1.04624154      -1.55800885      -1.48963546       0.00000000
Si      -1.48568058       1.34510440       1.50735940       0.00000000
Si       1.58894289       1.30056754      -1.55996435       0.00000000
Si       2.48513724       2.60453317       0.20888955       0.00000000
Si      -2.64984543      -2.64507313      -0.06016758       0.00000000
Si       2.68055208      -2.64666955       0.20408828       0.00000000
Si      -0.05994720       2.50539223      -2.95436639       0.00000000
Si       2.58466914      -0.00435758       2.90695247       0.00000000
Si      -2.95427295       2.54083927       0.02293018       0.00000000
