10
Lattice="16.28999089631971 0.0 0.0 0.0 16.28999089631971 0.0 0.0 0.0 34.49183129400761" Properties=species:S:1:pos:R:3:initial_magmoms:R:1 pbc="T T T"
Si       1.35343836       1.35684460      -1.38705528       0.00000000
Si      -1.36153449      -1.35744325      -1.38853843       0.00000000
Si       1.55693304      -1.31790547       1.38774512       0.00000000
Si      -1.38658851       1.46044900       1.45286573       0.00000000
Si      -2.69819415      -2.71240459      -0.01410717       0.00000000
Si       2.71971324       2.70497242      -0.01755635       0.00000000
Si       2.71508688      -2.71779658      -0.04942682       0.00000000
Si      -2.71428867       2.72292400      -0.02452371       0.00000000
Si       2.71267596      -0.00159479      -2.74844862       0.00000000
Si      -0.00138465      -2.71520647      -2.74782777       0.00000000
