10
Lattice="16.28999089631971 0.0 0.0 0.0 16.28999089631971 0.0 0.0 0.0 34.49183129400761" Properties=species:S:1:pos:R:3:initial_magmoms:R:1 pbc="T T T"
Si      -0.43585524       0.73280565      -2.27125387       0.00000000
Si       1.33087671      -1.93810275      -0.68587045       0.00000000
Si       1.11001689       0.72174474       2.10631384       0.00000000
Si      -2.49864165       1.29533193       0.56866714       0.00000000
Si      -2.51260218      -0.98875413       1.37701815       0.00000000
Si       0.64775556      -1.41752322       3.06097928       0.00000000
Si      -2.33409636      -2.62825629      -0.41842064       0.00000000
Si       3.45631446       0.41212071       1.71638347       0.00000000
Si       3.32345322      -1.89640035       0.67500552       0.00000000
Si      -0.05059674      -3.89232032      -0.08071093       0.00000000
