10
Lattice="16.28999089631971 0.0 0.0 0.0 16.28999089631971 0.0 0.0 0.0 34.49183129400761" Properties=species:S:1:pos:R:3:initial_magmoms:R:1 pbc="T T T"
Si      -2.18893617      -0.45351360       0.74471355       0.00000000
Si       0.25060536      -1.30365612      -1.97165765       0.00000000
Si       1.48239000      -1.15136091       1.45831544       0.00000000
Si       0.80699031       2.30949846      -0.33598512       0.00000000
Si       3.27562578      -0.94296294      -0.08657454       0.00000000
Si       2.49823440      -0.86420079      -2.29291475       0.00000000
Si      -3.48248435       0.50169942      -0.99329631       0.00000000
Si      -1.05446799       3.51585441       0.46498464       0.00000000
Si       2.44786572       2.59563231       1.32572877       0.00000000
Si       0.88681131       2.15744760       3.04749297       0.00000000
