10
Lattice="16.28999089631971 0.0 0.0 0.0 16.28999089631971 0.0 0.0 0.0 34.49183129400761" Properties=species:S:1:pos:R:3:initial_magmoms:R:1 pbc="T T T"
Si      -0.81370179      -1.81927893      -1.28654603       0.00000000
Si       1.06590357      -0.59148501       2.04860897       0.00000000
Si       1.88020809       0.96102855      -1.15868474       0.00000000
Si      -1.92383760       1.92612960       0.18018543       0.00000000
Si      -2.18190866      -0.49814331      -2.64504205       0.00000000
Si       0.55250793       2.22350355      -2.63607417       0.00000000
Si      -0.34806843      -2.31903530       2.83057372       0.00000000
Si      -2.37663932      -3.01903289       0.12958588       0.00000000
Si      -0.71568486       3.59813520      -1.15951254       0.00000000
Si      -3.58498007       0.82113003      -1.20235142       0.00000000
