10
Lattice="16.28999089631971 0.0 0.0 0.0 16.28999089631971 0.0 0.0 0.0 34.49183129400761" Properties=species:S:1:pos:R:3:initial_magmoms:R:1 pbc="T T T"
Si       1.35412254      -1.35262386      -1.35684042       0.00000000
Si      -1.35757602      -1.34521191       1.36763637       0.00000000
Si      -1.35733167       1.36275624      -1.35525379       0.00000000
Si       1.37639097       1.35423657       1.38264032       0.00000000
Si      -0.09607842       2.54925468       2.80298024       0.00000000
Si       2.71015101      -2.71129131       0.00510479       0.00000000
Si      -0.00224802      -2.71090035      -2.71371533       0.00000000
Si       2.71238274       0.00369783      -2.71340490       0.00000000
Si      -2.71837746      -2.70855459       0.00244892       0.00000000
Si      -2.71705797       0.00376299      -2.71350838       0.00000000
