10
Lattice="16.28999089631971 0.0 0.0 0.0 16.28999089631971 0.0 0.0 0.0 34.49183129400761" Properties=species:S:1:pos:R:3:initial_magmoms:R:1 pbc="T T T"
Si       1.69137441       1.14429105       1.09673737       0.00000000
Si       1.47246939      -1.19501811      -1.42033991       0.00000000
Si      -1.25406936       1.51772301      -1.43372275       0.00000000
Si      -0.74572362      -1.69828137       1.57920938       0.00000000
Si      -2.52969039      -2.51983494       0.04121776       0.00000000
Si       0.09607842      -2.54925468      -2.80298024       0.00000000
Si       1.15013916      -3.34839321       1.39650605       0.00000000
Si       1.17740862       1.47294180       3.31659838       0.00000000
Si      -2.62251081       0.16873182      -2.80042784       0.00000000
Si      -2.47787190       3.02267466      -0.09699108       0.00000000
