10
Lattice="16.28999089631971 0.0 0.0 0.0 16.28999089631971 0.0 0.0 0.0 34.49183129400761" Properties=species:S:1:pos:R:3:initial_magmoms:R:1 pbc="T T T"
Si      -2.15876709      -0.14035464      -0.79779650       0.00000000
Si       1.50431634       0.05194881      -1.86928584       0.00000000
Si       1.01331945       1.59268959       1.59866278       0.00000000
Si      -1.01077821      -1.35164646       2.22672489       0.00000000
Si       2.37689019      -0.17785422       2.23827966       0.00000000
Si      -2.53636929       2.04260310      -1.50267196       0.00000000
Si       0.98170056       2.03936139      -2.93063458       0.00000000
Si       0.88975980       3.49692543      -1.04610334       0.00000000
Si       0.29761830      -3.82800013      -0.20277759       0.00000000
Si      -3.29725890       0.70820775       1.85373002       0.00000000
