10
Lattice="16.28999089631971 0.0 0.0 0.0 16.28999089631971 0.0 0.0 0.0 34.49183129400761" Properties=species:S:1:pos:R:3:initial_magmoms:R:1 pbc="T T T"
Si      -1.29220425      -1.73636739      -0.81800873       0.00000000
Si       0.91541655      -0.77569722       1.97990121       0.00000000
Si      -0.76766625       2.23591653       0.06898370       0.00000000
Si       1.13849181      -0.84856239      -2.65152652       0.00000000
Si       2.28648069      -2.05985421       0.37299487       0.00000000
Si       0.47255661      -3.35336166      -0.54348809       0.00000000
Si       1.58785146       3.15012762       0.29428447       0.00000000
Si       0.76088961       1.33439535      -3.35640198       0.00000000
Si      -2.10546621      -1.09247256      -2.92787523       0.00000000
Si      -2.25764739       2.45408850      -1.83651858       0.00000000
