10
Lattice="16.28999089631971 0.0 0.0 0.0 16.28999089631971 0.0 0.0 0.0 34.49183129400761" Properties=species:S:1:pos:R:3:initial_magmoms:R:1 pbc="T T T"
Si       0.93592566       1.49831529      -1.64626154       0.00000000
Si      -0.53840079       1.46009217       1.96386250       0.00000000
Si      -1.82216682      -1.10819241      -1.55120200       0.00000000
Si       2.02382073      -1.43840700       1.29654866       0.00000000
Si       2.35986714       2.82714320      -0.32301618       0.00000000
Si       2.09407950       0.09842418      -3.08343347       0.00000000
Si       0.84307266       3.41430974       1.35870298       0.00000000
Si      -2.23037793       0.22503006       3.25723791       0.00000000
Si       2.53477287      -3.00501630      -0.48436906       0.00000000
Si      -0.62959221      -2.60135010      -3.04742398       0.00000000
