10
Lattice="16.28999089631971 0.0 0.0 0.0 16.28999089631971 0.0 0.0 0.0 34.49183129400761" Properties=species:S:1:pos:R:3:initial_magmoms:R:1 pbc="T T T"
Si      -0.21530493      -0.49246299      -2.28287762       0.00000000
Si       1.72942785      -1.41266880       0.77837759       0.00000000
Si      -1.74809619      -1.05687891       1.25457208       0.00000000
Si       1.01602359       2.14750974       0.48133377       0.00000000
Si       0.09146835       2.13804036       2.57923160       0.00000000
Si       1.85113044       0.34363755      -3.20498275       0.00000000
Si       3.11192757      -0.02370195       2.05216163       0.00000000
Si       3.32174277       1.65345522       0.37164969       0.00000000
Si      -2.26629738       2.23833952       2.16422566       0.00000000
Si      -3.56700501       0.38576349       1.40809531       0.00000000
