10
Lattice="16.28999089631971 0.0 0.0 0.0 16.28999089631971 0.0 0.0 0.0 34.49183129400761" Properties=species:S:1:pos:R:3:initial_magmoms:R:1 pbc="T T T"
Si       1.29354817      -0.95521302       1.73800986       0.00000000
Si      -2.30027736      -0.32334021       0.64427328       0.00000000
Si       0.60782062       2.34709578       0.03649238       0.00000000
Si       0.55482926      -1.03848750      -2.19902793       0.00000000
Si       3.48248435      -0.50169942       0.99329631       0.00000000
Si       1.27605271       2.74509306      -2.20382230       0.00000000
Si       0.90749146      -3.27404402       1.74290770       0.00000000
Si      -3.69804081       0.29947536      -1.17399912       0.00000000
Si       0.80431061       0.07107327       3.81617835       0.00000000
Si      -2.83576224       0.85020768       2.63127980       0.00000000
