10
Lattice="16.28999089631971 0.0 0.0 0.0 16.28999089631971 0.0 0.0 0.0 34.49183129400761" Properties=species:S:1:pos:R:3:initial_magmoms:R:1 pbc="T T T"
Si      -1.35684297      -1.35666802      -1.35742678       0.00000000
Si       1.35839052      -1.35738773       1.35697839       0.00000000
Si       1.35840681       1.35861858      -1.35746127       0.00000000
Si      -1.35923760       1.35843939       1.36139334       0.00000000
Si       0.00241092      -2.71620179       2.69902180       0.00000000
Si      -2.71406061      -2.71361168       0.00062085       0.00000000
Si       0.00115659      -2.71444247      -2.71433618       0.00000000
Si      -2.71438641       0.00117125      -2.71481907       0.00000000
Si       2.71524978       0.00100509      -2.71471559       0.00000000
Si       0.00057015       2.71580364      -2.71478457       0.00000000
