10
Lattice="16.28999089631971 0.0 0.0 0.0 16.28999089631971 0.0 0.0 0.0 34.49183129400761" Properties=species:S:1:pos:R:3:initial_magmoms:R:1 pbc="T T T"
Si      -1.24921494      -1.48560890       1.31562266       0.00000000
Si       1.19721726      -1.49118008      -1.41664929       0.00000000
Si       1.11470841       1.62414558       1.34876932       0.00000000
Si      -1.51037622       1.20844107      -1.41292417       0.00000000
Si      -2.68872966       2.55911013       0.12072148       0.00000000
Si       2.55629196      -0.14048496      -2.78363031       0.00000000
Si       2.63042775       2.73059496      -0.06798344       0.00000000
Si      -0.16135245       2.57629608      -2.78373378       0.00000000
Si      -0.66217221       3.37240467       1.61276995       0.00000000
Si       2.53386063      -2.83830151      -0.02586889       0.00000000
