10
Lattice="16.28999089631971 0.0 0.0 0.0 16.28999089631971 0.0 0.0 0.0 34.49183129400761" Properties=species:S:1:pos:R:3:initial_magmoms:R:1 pbc="T T T"
Si       1.90154799       0.39873522       1.40412874       0.00000000
Si      -1.85349249       1.51217301       0.49592383       0.00000000
Si      -0.39750858      -2.41444094      -0.37630609       0.00000000
Si       0.36450504      -2.22420632      -2.68674270       0.00000000
Si      -2.32927452       0.88330407      -2.54667129       0.00000000
Si       2.51647920       1.12933194      -2.42381132       0.00000000
Si      -0.53703243      -2.76762443       2.52690746       0.00000000
Si       2.62809828       2.59042440       0.94821546       0.00000000
Si      -3.52916334       0.24051370       1.59414435       0.00000000
Si       1.41656211       0.13276676       3.71670385       0.00000000
