10
Lattice="16.28999089631971 0.0 0.0 0.0 16.28999089631971 0.0 0.0 0.0 34.49183129400761" Properties=species:S:1:pos:R:3:initial_magmoms:R:1 pbc="T T T"
Si       1.58058612      -0.14832045      -1.71331369       0.00000000
Si       0.21722715      -2.08885855       1.04241271       0.00000000
Si      -2.17321632      -0.12201210      -0.87329916       0.00000000
Si       0.49936995       1.78162101       1.47380228       0.00000000
Si      -3.44631240      -0.32560452       1.09270183       0.00000000
Si       0.39172563       0.83360817      -3.57056188       0.00000000
Si       2.41297254      -2.40464998      -1.46369617       0.00000000
Si       2.52294633      -2.58291308       0.93272862       0.00000000
Si      -0.02324583       3.76903359       0.41245355       0.00000000
Si      -2.91595887       2.01038148      -1.40840573       0.00000000
