10
Lattice="16.28999089631971 0.0 0.0 0.0 16.28999089631971 0.0 0.0 0.0 34.49183129400761" Properties=species:S:1:pos:R:3:initial_magmoms:R:1 pbc="T T T"
Si       1.35397593      -1.35542574       1.36297997       0.00000000
Si      -1.36091547       1.35969372       1.36201420       0.00000000
Si      -1.37981187      -1.34599383      -1.37136149       0.00000000
Si       1.34690607       1.37122704      -1.38201947       0.00000000
Si       2.70987408      -2.71290402      -0.00003449       0.00000000
Si       2.71358820       2.71603170       0.00224197       0.00000000
Si      -2.71950147      -2.71093293       0.00275935       0.00000000
Si       2.71197549       0.00236205       2.71988937       0.00000000
Si      -0.00361638      -2.71290402       2.71985488       0.00000000
Si      -2.71684620       2.71704168       0.00065535       0.00000000
