10
Lattice="16.28999089631971 0.0 0.0 0.0 16.28999089631971 0.0 0.0 0.0 34.49183129400761" Properties=species:S:1:pos:R:3:initial_magmoms:R:1 pbc="T T T"
Si       1.17835344      -1.35066906      -1.53364564       0.00000000
Si      -1.84401171      -0.78664410       1.29123692       0.00000000
Si      -1.52168148       1.36673100      -1.52560904       0.00000000
Si       2.02655745       0.81329454       1.49204847       0.00000000
Si       2.68872966      -2.55911013      -0.12072148       0.00000000
Si       2.54164725       2.72502378      -0.04559823       0.00000000
Si       2.52737721       0.01718595      -2.90445526       0.00000000
Si      -2.92794831      -2.59519248      -0.06322356       0.00000000
Si      -2.99415087       2.56174911      -0.10526913       0.00000000
Si      -0.18792144      -2.69879688      -2.90314457       0.00000000
