10
Lattice="16.28999089631971 0.0 0.0 0.0 16.28999089631971 0.0 0.0 0.0 34.49183129400761" Properties=species:S:1:pos:R:3:initial_magmoms:R:1 pbc="T T T"
Si      -2.34629757       0.30962403       0.38993037       0.00000000
Si       1.42615692      -0.23952816       1.94582326       0.00000000
Si       0.57243060       2.01420963      -1.28792570       0.00000000
Si      -0.13286124      -2.30852106      -1.04137795       0.00000000
Si       0.35277624       1.39993002       3.30266368       0.00000000
Si      -2.80855890      -1.82964393       1.34459581       0.00000000
Si      -0.99751815       3.02449914       2.05450708       0.00000000
Si      -3.45631446      -0.41212071      -1.71638347       0.00000000
Si      -0.12315240       3.90339351       0.00713981       0.00000000
Si       3.00056913       2.20866336      -1.21538934       0.00000000
