10
Lattice="16.28999089631971 0.0 0.0 0.0 16.28999089631971 0.0 0.0 0.0 34.49183129400761" Properties=species:S:1:pos:R:3:initial_magmoms:R:1 pbc="T T T"
Si       1.35343836      -1.74552956      -0.57442728       0.00000000
Si       1.29222054       1.91176182      -0.02355793       0.00000000
Si      -1.08848640      -0.92862122       1.84803886       0.00000000
Si      -1.81952784      -0.04772807      -1.46728332       0.00000000
Si      -3.02041754      -1.04336798       0.32363703       0.00000000
Si       0.54123525       2.46405798      -2.21613589       0.00000000
Si      -1.79546051       2.28121902      -1.72786925       0.00000000
Si       2.65637772      -1.81225340       1.38605502       0.00000000
Si      -0.16296516      -3.55841108      -0.59970981       0.00000000
Si       0.83435751      -2.06315198       2.89572882       0.00000000
