10
Lattice="16.28999089631971 0.0 0.0 0.0 16.28999089631971 0.0 0.0 0.0 34.49183129400761" Properties=species:S:1:pos:R:3:initial_magmoms:R:1 pbc="T T T"
Si      -1.35726651       1.35770634      -1.35759924       0.00000000
Si       1.35778779      -1.35744570      -1.35756475       0.00000000
Si      -1.35865116      -1.35591444       1.35825458       0.00000000
Si       1.35809730       1.35933534       1.35646101       0.00000000
Si       0.00490329       2.71218726       2.71392228       0.00000000
Si       2.71173114       0.00055386       2.71537094       0.00000000
Si      -0.00021177      -2.71523349      -2.71447415       0.00000000
Si       2.71471221       2.71513575      -0.00010348       0.00000000
Si       2.71542897      -0.00065160      -2.71447415       0.00000000
Si      -2.71503801       2.71495656      -0.00044839       0.00000000
