10
Lattice="16.28999089631971 0.0 0.0 0.0 16.28999089631971 0.0 0.0 0.0 34.49183129400761" Properties=species:S:1:pos:R:3:initial_magmoms:R:1 pbc="T T T"
Si      -1.34506530       1.32923142       1.42016746       0.00000000
Si       1.25709930      -1.62197901       1.23594648       0.00000000
Si       1.78434144       1.70764812      -0.36844195       0.00000000
Si      -1.59531228      -1.37725434      -1.77802041       0.00000000
Si      -1.70041536       2.88272727      -0.45667210       0.00000000
Si       0.46866330       2.67670764      -2.03450181       0.00000000
Si       1.45222092      -2.97981567      -0.81759483       0.00000000
Si       0.35963433      -2.15710551      -2.85882254       0.00000000
Si      -0.00003258       2.48626125       2.96097158       0.00000000
Si      -2.72763018      -0.08394237       2.81712676       0.00000000
