10
Lattice="16.28999089631971 0.0 0.0 0.0 16.28999089631971 0.0 0.0 0.0 34.49183129400761" Properties=species:S:1:pos:R:3:initial_magmoms:R:1 pbc="T T T"
Si       1.35570267       1.35702216      -1.35770271       0.00000000
Si      -1.35975888       1.35571896       1.35801314       0.00000000
Si      -1.35935163      -1.35804843      -1.35794416       0.00000000
Si       1.36058967      -1.36081773       1.35642652       0.00000000
Si      -0.00027693       2.71226871       2.69871137       0.00000000
Si       2.72490975      -0.01163106       2.69667635       0.00000000
Si       2.71283886      -0.00006516      -2.71450864       0.00000000
Si       2.71378368      -2.71366965      -0.00103476       0.00000000
Si       2.71402803       2.71433754      -0.00072433       0.00000000
Si      -0.00153126       2.71402803      -2.71464661       0.00000000
