10
Lattice="16.28999089631971 0.0 0.0 0.0 16.28999089631971 0.0 0.0 0.0 34.49183129400761" Properties=species:S:1:pos:R:3:initial_magmoms:R:1 pbc="T T T"
Si       1.35734637       1.35715248      -1.35735780       0.00000000
Si      -1.35790182      -1.35847197      -1.35694389       0.00000000
Si      -1.36098063       1.35738054       1.35863399       0.00000000
Si       1.35903587      -1.36041048       1.36125537       0.00000000
Si       2.71442292       2.71358820       0.00089679       0.00000000
Si      -0.00029322       2.71417464      -2.71440516       0.00000000
Si       2.71476338      -0.00071676      -2.71412923       0.00000000
Si      -2.71492398      -0.00061902      -2.71430169       0.00000000
Si      -0.00052128      -2.71529865      -2.71464661       0.00000000
Si       2.71541172      -2.71510317       0.00003449       0.00000000
