10
Lattice="16.28999089631971 0.0 0.0 0.0 16.28999089631971 0.0 0.0 0.0 34.49183129400761" Properties=species:S:1:pos:R:3:initial_magmoms:R:1 pbc="T T T"
Si      -2.35760283       0.30257046       0.43873634       0.00000000
Si       0.54396612      -1.85873787      -1.61970281       0.00000000
Si       0.31439700       2.32109694      -1.09808255       0.00000000
Si       0.57824843      -1.09895598       2.37334975       0.00000000
Si       2.65519574       2.03041818      -1.09621999       0.00000000
Si       1.66607508      -2.88336258       1.16427242       0.00000000
Si       2.80737692      -1.51614288      -2.18757664       0.00000000
Si      -2.55272445       1.66040712       2.49227765       0.00000000
Si      -3.45018942       1.12528062      -1.60249138       0.00000000
Si      -0.40746177      -1.38010509      -3.73729548       0.00000000
