10
Lattice="16.28999089631971 0.0 0.0 0.0 16.28999089631971 0.0 0.0 0.0 34.49183129400761" Properties=species:S:1:pos:R:3:initial_magmoms:R:1 pbc="T T T"
Si       1.35755973      -1.35769005      -1.35549524       0.00000000
Si      -1.35764118      -1.35679410       1.35690940       0.00000000
Si       1.35698958       1.35799956       1.35680593       0.00000000
Si      -1.35602847       1.35687555      -1.36073800       0.00000000
Si       0.02445129      -2.70179424      -2.71461901       0.00000000
Si       2.71283956      -2.71347417      -0.00051738       0.00000000
Si       2.71462917       0.00097740       2.71385329       0.00000000
Si      -0.00061902      -2.71464705       2.71426720       0.00000000
Si       2.71312946       2.71581993      -0.00082780       0.00000000
Si      -2.71542897       0.00065160       2.71447415       0.00000000
