10
Lattice="16.28999089631971 0.0 0.0 0.0 16.28999089631971 0.0 0.0 0.0 34.49183129400761" Properties=species:S:1:pos:R:3:initial_magmoms:R:1 pbc="T T T"
Si      -1.35467640       1.35607734      -1.35770271       0.00000000
Si       1.36033296      -1.36063854      -1.35753025       0.00000000
Si       1.35218959       1.35576783       1.37143047       0.00000000
Si      -1.35088083      -1.35488817       1.37912215       0.00000000
Si       0.12804903      -2.63808405       2.76655684       0.00000000
Si      -2.71326240       2.71257822      -0.00024144       0.00000000
Si      -2.71208952      -0.00226431      -2.71526746       0.00000000
Si       0.00326877       2.71285515      -2.71523297       0.00000000
Si       2.71463795       2.71399545       0.00320774       0.00000000
Si      -2.71507059      -2.71684620       0.00020695       0.00000000
