10
Lattice="16.28999089631971 0.0 0.0 0.0 16.28999089631971 0.0 0.0 0.0 34.49183129400761" Properties=species:S:1:pos:R:3:initial_magmoms:R:1 pbc="T T T"
Si       0.70033968      -1.25250552       1.84838378       0.00000000
Si      -2.30221683      -0.06664239      -0.53241621       0.00000000
Si       0.98446986      -1.24279668      -1.79543879       0.00000000
Si       0.41936976       2.30239602       0.57404787       0.00000000
Si      -1.90765674       0.74248191      -2.72647731       0.00000000
Si       2.70399339      -0.11846088       2.40366808       0.00000000
Si      -1.67770710       2.81292462       1.54809773       0.00000000
Si       0.93603969      -3.42886581       1.05934821       0.00000000
Si       1.96165809       2.09647413       2.36314016       0.00000000
Si      -0.65726892      -1.12014927      -3.50447549       0.00000000
