10
Lattice="16.28999089631971 0.0 0.0 0.0 16.28999089631971 0.0 0.0 0.0 34.49183129400761" Properties=species:S:1:pos:R:3:initial_magmoms:R:1 pbc="T T T"
Si       1.35467640      -1.35607734       1.35770271       0.00000000
Si       1.35794517       1.35677781      -1.35753025       0.00000000
Si      -1.35858600       1.35650088       1.35746127       0.00000000
Si      -1.35741312      -1.35834165      -1.35756475       0.00000000
Si      -2.70290196      -0.01210347       2.69671084       0.00000000
Si      -2.71378368       2.71386513      -0.00068984       0.00000000
Si      -2.71402803      -2.71414206      -0.00100026       0.00000000
Si       0.00030951       2.71355562      -2.71516399       0.00000000
Si      -2.71497285      -0.00053757      -2.71447415       0.00000000
Si       2.71547525      -0.00140094      -2.71509500       0.00000000
