10
Lattice="16.28999089631971 0.0 0.0 0.0 16.28999089631971 0.0 0.0 0.0 34.49183129400761" Properties=species:S:1:pos:R:3:initial_magmoms:R:1 pbc="T T T"
Si       0.04404816       2.34307771      -0.15393713       0.00000000
Si      -0.42031458      -1.23605262       1.96903627       0.00000000
Si      -1.90954638      -0.55731348      -1.34373351       0.00000000
Si       2.17124523      -0.41168088      -0.96856566       0.00000000
Si       0.52903404       2.60904617      -2.46651223       0.00000000
Si       1.45989351       3.04649294       1.61846110       0.00000000
Si       2.48644044       1.32502860      -2.59088985       0.00000000
Si       2.00621124      -2.22705477      -2.40846245       0.00000000
Si      -0.83968434      -3.53844864       1.39498840       0.00000000
Si      -2.51739144      -0.72552402       2.94308613       0.00000000
