10
Lattice="16.28999089631971 0.0 0.0 0.0 16.28999089631971 0.0 0.0 0.0 34.49183129400761" Properties=species:S:1:pos:R:3:initial_magmoms:R:1 pbc="T T T"
Si      -1.35763959       1.35702216      -1.35704737       0.00000000
Si       1.35707655       1.35643572       1.35825458       0.00000000
Si      -1.35734637      -1.35715248       1.35735780       0.00000000
Si       1.35741701      -1.35786924      -1.35677143       0.00000000
Si       2.71434631      -0.00092853      -2.71409474       0.00000000
Si      -2.71462917      -0.00097740      -2.71385329       0.00000000
Si      -0.00178961      -2.71445157      -2.71437067       0.00000000
Si       2.71452550       2.71433754       0.00037941       0.00000000
Si      -0.00149972       2.71484253      -2.71468110       0.00000000
Si      -2.71534593       2.71480995       0.00051738       0.00000000
