10
Lattice="16.28999089631971 0.0 0.0 0.0 16.28999089631971 0.0 0.0 0.0 34.49183129400761" Properties=species:S:1:pos:R:3:initial_magmoms:R:1 pbc="T T T"
Si      -1.34076637      -1.35682668       1.37425880       0.00000000
Si      -1.35650414       1.35755973      -1.35839255       0.00000000
Si       1.36125756      -1.35523026      -1.35780619       0.00000000
Si       1.36844145       1.34899119       1.36670509       0.00000000
Si      -2.58878807       0.08011422       2.76569455       0.00000000
Si      -2.71189119      -2.71643895       0.00196604       0.00000000
Si      -2.71358068       0.00112401      -2.71664713       0.00000000
Si       0.00153126      -2.71422351      -2.71606077       0.00000000
Si       2.71961550       2.71147050       0.00117272       0.00000000
Si       2.62251081      -0.16873182       2.80042784       0.00000000
