10
Lattice="16.28999089631971 0.0 0.0 0.0 16.28999089631971 0.0 0.0 0.0 34.49183129400761" Properties=species:S:1:pos:R:3:initial_magmoms:R:1 pbc="T T T"
Si       0.76766625      -2.23591653      -0.06898370       0.00000000
Si      -1.29347487       0.47785086       1.97710737       0.00000000
Si      -1.48998114       0.21817197      -1.90550228       0.00000000
Si       2.35551771       0.91421109       0.22530077       0.00000000
Si       2.65728996       0.82570752      -2.22934627       0.00000000
Si       1.66689054       2.83964022       1.60901034       0.00000000
Si       0.31177431       1.47579255       3.34355863       0.00000000
Si      -0.91276128       2.23210467      -2.93353189       0.00000000
Si       1.52855586      -0.90152118      -3.42538568       0.00000000
Si      -0.78082857      -1.10861595      -3.66489709       0.00000000
