10
Lattice="16.28999089631971 0.0 0.0 0.0 16.28999089631971 0.0 0.0 0.0 34.49183129400761" Properties=species:S:1:pos:R:3:initial_magmoms:R:1 pbc="T T T"
Si      -0.72326004       0.32873220      -2.28915514       0.00000000
Si       0.63741793       1.85583825       1.48344417       0.00000000
Si      -1.91063848      -0.94271859       1.30981910       0.00000000
Si       1.81013503      -1.74423546       0.11689288       0.00000000
Si       2.01564967       0.49288653       2.92792494       0.00000000
Si      -3.06704929       0.95570172      -1.78160756       0.00000000
Si      -0.69775024      -2.25256491       2.90895442       0.00000000
Si       3.41538421      -0.74629377       1.48334415       0.00000000
Si       0.72087648      -3.58868700       1.36716525       0.00000000
Si       1.68264949       3.64547394      -0.00838152       0.00000000
