10
Lattice="16.28999089631971 0.0 0.0 0.0 16.28999089631971 0.0 0.0 0.0 34.49183129400761" Properties=species:S:1:pos:R:3:initial_magmoms:R:1 pbc="T T T"
Si      -1.35415675       1.35855342      -1.36225564       0.00000000
Si       1.36013355      -1.36032903      -1.36091046       0.00000000
Si      -1.36244836      -1.35822762       1.36822273       0.00000000
Si       1.37930688       1.35927018       1.37315506       0.00000000
Si       0.14683806      -2.57825088       2.70109131       0.00000000
Si      -2.71133108       2.71376739      -0.00655345       0.00000000
Si      -2.71463795      -2.71399545      -0.00320774       0.00000000
Si      -2.71136918      -0.00114030      -2.71844071       0.00000000
Si       2.71596654       2.71423151      -0.00127620       0.00000000
Si       0.00309510       2.71387068      -2.71826825       0.00000000
