10
Lattice="16.28999089631971 0.0 0.0 0.0 16.28999089631971 0.0 0.0 0.0 34.49183129400761" Properties=species:S:1:pos:R:3:initial_magmoms:R:1 pbc="T T T"
Si       1.50928642      -1.22002326       1.33286858       0.00000000
Si      -1.35218959      -1.35576783      -1.37143047       0.00000000
Si       1.36244836       1.35822762      -1.36822273       0.00000000
Si      -1.42161757       1.32507747       1.45997105       0.00000000
Si      -2.70307042      -2.71065600       0.00769168       0.00000000
Si      -2.70114820       2.71578735      -0.00358715       0.00000000
Si      -2.70686599       0.00030951      -2.72913318       0.00000000
Si       0.40265785      -2.75041989       2.66135670       0.00000000
Si       0.00814337      -2.71640637      -2.72896073       0.00000000
Si       0.00829161       2.71678104      -2.73047837       0.00000000
