10
Lattice="16.28999089631971 0.0 0.0 0.0 16.28999089631971 0.0 0.0 0.0 34.49183129400761" Properties=species:S:1:pos:R:3:initial_magmoms:R:1 pbc="T T T"
Si       1.31772416      -1.23891966       1.46690391       0.00000000
Si      -1.21813103      -1.58521248      -1.30020480       0.00000000
Si       1.56293753       1.19975396      -1.41613191       0.00000000
Si      -1.16828363       1.65427949       1.44355293       0.00000000
Si       2.02857089       0.69999759       2.70098783       0.00000000
Si      -2.49766166      -0.19450260      -2.76376300       0.00000000
Si       0.19473066       2.52088957      -2.77462794       0.00000000
Si       2.37663932       3.01903289      -0.12958588       0.00000000
Si       2.85585854      -2.62459593       0.05218617       0.00000000
Si      -3.17778545      -2.35607157      -0.09443869       0.00000000
