10
Lattice="16.28999089631971 0.0 0.0 0.0 16.28999089631971 0.0 0.0 0.0 34.49183129400761" Properties=species:S:1:pos:R:3:initial_magmoms:R:1 pbc="T T T"
Si      -0.87441462       0.96871973      -1.94296043       0.00000000
Si      -1.07114081      -2.09044683       0.05090997       0.00000000
Si       2.26918071       0.14377554      -0.61316163       0.00000000
Si      -0.14219541       1.05261975       2.10624486       0.00000000
Si       0.53520795       0.02248020      -3.63371646       0.00000000
Si       2.68340283       2.52130823      -0.61502419       0.00000000
Si       0.16576704      -3.44616579      -1.51884864       0.00000000
Si      -3.28600970      -1.65227841      -0.91610355       0.00000000
Si      -0.49485762       3.28817627      -1.83569078       0.00000000
Si      -2.31861109       0.69578078       2.92735785       0.00000000
