10
Lattice="10.86 0.0 0.0 0.0 10.86 0.0 0.0 0.0 10.86" Properties=species:S:1:pos:R:3:initial_magmoms:R:1 pbc="T T T"
Si       1.43308560       1.17897246       1.26812220       0.00000000
Si      -1.28191440       1.17897246      -1.44687780       0.00000000
Si       1.43308560      -1.53602754      -1.44687780       0.00000000
Si      -2.46634944       0.02367480      -2.59648482       0.00000000
Si      -2.50140552      -0.18885540       2.56852032       0.00000000
Si       0.07558560       2.53647246       2.62562220       0.00000000
Si      -2.63941440       2.53647246      -0.08937780       0.00000000
Si       2.79058560       2.53647246      -0.08937780       0.00000000
Si       0.07558560       2.53647246      -2.80437780       0.00000000
Si       2.79058560      -0.17852754       2.62562220       0.00000000
