10
Lattice="10.86 0.0 0.0 0.0 10.86 0.0 0.0 0.0 10.86" Properties=species:S:1:pos:R:3:initial_magmoms:R:1 pbc="T T T"
Si       0.39422886      -0.93949860      -2.08409916       0.00000000
Si       1.56397032       0.52853448       1.95650502       0.00000000
Si       1.93001748       1.17388998      -1.23691056       0.00000000
Si      -2.32077114      -0.93949860       0.63090084       0.00000000
Si       1.75172886      -2.29699860      -0.72659916       0.00000000
Si      -0.96327114      -2.29699860       1.98840084       0.00000000
Si       3.10922886      -0.93949860       0.63090084       0.00000000
Si       0.39422886      -0.93949860       3.34590084       0.00000000
Si      -2.32077114       1.77550140      -2.08409916       0.00000000
Si      -0.92637972       3.04857576       1.77407874       0.00000000
