10
Lattice="16.28999089631971 0.0 0.0 0.0 16.28999089631971 0.0 0.0 0.0 34.69518985606464" Properties=species:S:1:pos:R:3:initial_magmoms:R:1 pbc="T T T"
Si      -0.79425479      -1.93922513       1.03063125       0.00000000
Si       0.23250717      -0.10236636      -2.32817869       0.00000000
Si       1.88569782       0.98443728       1.09637520       0.00000000
Si      -1.80300978       1.57806117      -0.18498622       0.00000000
Si      -2.06644256      -0.44150787       2.50480988       0.00000000
Si      -1.90834564       0.99974988      -2.51084896       0.00000000
Si       2.04338502       1.43540964      -2.42643552       0.00000000
Si       0.64892844       2.29915431       2.54491407       0.00000000
Si      -0.86180453       3.42699246       1.08555377       0.00000000
Si       2.56549581       2.83033863      -0.39045125       0.00000000
