10
Lattice="16.28999089631971 0.0 0.0 0.0 16.28999089631971 0.0 0.0 0.0 34.69518985606464" Properties=species:S:1:pos:R:3:initial_magmoms:R:1 pbc="T T T"
Si       1.43935345      -1.00416447      -1.63511582       0.00000000
Si       1.11940156       2.14332647       0.02265597       0.00000000
Si       0.23581567      -1.34025975       2.00985878       0.00000000
Si      -2.20850602       0.68119893      -0.76423137       0.00000000
Si       3.48018094       0.00478926      -0.96216754       0.00000000
Si      -1.68251821       2.56037490      -2.12025893       0.00000000
Si      -1.48040818      -3.05044911       1.76813725       0.00000000
Si       0.56056008      -0.53998092      -3.82937963       0.00000000
Si       2.88763219       2.16410925      -1.50861709       0.00000000
Si      -0.20773497       0.20251728       3.93304892       0.00000000
