10
Lattice="16.28999089631971 0.0 0.0 0.0 16.28999089631971 0.0 0.0 0.0 34.69518985606464" Properties=species:S:1:pos:R:3:initial_magmoms:R:1 pbc="T T T"
Si      -1.35641943       1.34996859      -1.36161349       0.00000000
Si       1.35759231       1.36230012       1.35686024       0.00000000
Si       1.35980775      -1.36522906      -1.36241148       0.00000000
Si      -1.36414089      -1.38400329       1.35984403       0.00000000
Si       2.41883694      -0.28248489       2.67815790       0.00000000
Si      -2.63617812       0.02503773       2.77950260       0.00000000
Si      -2.71498914       2.70671382       0.00253275       0.00000000
Si       0.00272043       2.70855459      -2.71871660       0.00000000
Si       2.72525184       2.70317889      -0.00884728       0.00000000
Si      -2.71311579      -2.71657349      -0.00412873       0.00000000
