10
Lattice="16.28999089631971 0.0 0.0 0.0 16.28999089631971 0.0 0.0 0.0 34.69518985606464" Properties=species:S:1:pos:R:3:initial_magmoms:R:1 pbc="T T T"
Si      -1.09240740       1.66228699      -1.30721140       0.00000000
Si      -0.86286501      -2.18683543      -0.42432241       0.00000000
Si      -0.12193065       0.90314041       2.21570545       0.00000000
Si       2.24971416      -0.11808132      -0.89669768       0.00000000
Si       1.02850173      -0.79768823       3.23505070       0.00000000
Si      -3.05360937       0.39706875      -1.83038046       0.00000000
Si       1.06844481      -3.06755428      -1.53488136       0.00000000
Si      -1.23727437       3.34312177       0.51258702       0.00000000
Si       0.81766026       3.04206628       1.76407791       0.00000000
Si      -2.45110743      -1.89511411      -2.15176218       0.00000000
