10
Lattice="16.28999089631971 0.0 0.0 0.0 16.28999089631971 0.0 0.0 0.0 34.69518985606464" Properties=species:S:1:pos:R:3:initial_magmoms:R:1 pbc="T T T"
Si       1.34298018       1.35330804      -1.38458172       0.00000000
Si      -1.36687761      -1.36976094      -1.37223022       0.00000000
Si      -1.44073647       1.19726613       1.48505904       0.00000000
Si       1.88639829      -0.83324979       1.26526489       0.00000000
Si      -2.24528328      -0.58485987       2.77353503       0.00000000
Si       2.70319518       2.68056837      -0.01804151       0.00000000
Si      -2.72098386       2.67462252      -0.01915176       0.00000000
Si       2.70570384      -2.71417464      -0.01790273       0.00000000
Si      -2.72577312      -2.70971118       0.01110247       0.00000000
Si      -0.00692325       2.70212004      -2.74022763       0.00000000
