10
Lattice="16.28999089631971 0.0 0.0 0.0 16.28999089631971 0.0 0.0 0.0 34.69518985606464" Properties=species:S:1:pos:R:3:initial_magmoms:R:1 pbc="T T T"
Si       0.84763386      -1.88273304       1.13196590       0.00000000
Si      -2.01057696      -0.86477094      -0.88424210       0.00000000
Si      -0.72358551       1.90757529       1.33049188       0.00000000
Si       1.78018749       0.11153763      -1.67577861       0.00000000
Si      -0.47749248      -3.64326664       0.38570664       0.00000000
Si       2.89553121      -2.32844373       0.02733982       0.00000000
Si      -1.40996466      -2.99784218      -1.73253997       0.00000000
Si       1.71457137       2.25434052      -2.57441922       0.00000000
Si       3.83512212      -0.18951786      -0.42428771       0.00000000
Si       0.58425714      -1.59449778       3.47364965       0.00000000
