10
Lattice="16.28999089631971 0.0 0.0 0.0 16.28999089631971 0.0 0.0 0.0 34.69518985606464" Properties=species:S:1:pos:R:3:initial_magmoms:R:1 pbc="T T T"
Si      -1.00523702       1.19925823      -1.78316028       0.00000000
Si       2.12634347       1.07472933       0.16501042       0.00000000
Si       0.73174354      -2.27478530      -0.03750552       0.00000000
Si      -1.51133474       0.82557052       1.67161518       0.00000000
Si       0.11041199       2.12664956       2.69838520       0.00000000
Si      -3.23522399       1.23433712      -1.05917535       0.00000000
Si       1.52573117       3.20780057       1.01330828       0.00000000
Si      -1.60544207      -0.46703513      -3.34642232       0.00000000
Si      -2.03732255      -1.05360545       3.02764274       0.00000000
Si       2.12025101      -2.45128745      -2.02134289       0.00000000
