10
Lattice="16.28999089631971 0.0 0.0 0.0 16.28999089631971 0.0 0.0 0.0 34.69518985606464" Properties=species:S:1:pos:R:3:initial_magmoms:R:1 pbc="T T T"
Si      -0.06561612       2.14280289      -0.89864061       0.00000000
Si       2.05493463      -0.30105549       1.25149089       0.00000000
Si      -1.78018749      -0.11153763       1.67577861       0.00000000
Si       0.14486697      -1.68083478      -1.81979842       0.00000000
Si       1.11534372      -2.43998136       1.70311843       0.00000000
Si      -0.93255363      -1.99427067       2.80774450       0.00000000
Si       1.23727437      -3.34312177      -0.51258702       0.00000000
Si       2.28923370       2.77097787      -1.01368993       0.00000000
Si      -0.42222051       3.70107171       0.84063022       0.00000000
Si      -3.79076445      -0.97630857       0.79153650       0.00000000
