10
Lattice="16.28999089631971 0.0 0.0 0.0 16.28999089631971 0.0 0.0 0.0 34.69518985606464" Properties=species:S:1:pos:R:3:initial_magmoms:R:1 pbc="T T T"
Si      -1.58780259      -1.54031724       0.75302482       0.00000000
Si      -0.64984068       1.80318897       1.35772762       0.00000000
Si       2.07378216      -0.81290358       0.99693214       0.00000000
Si      -1.19909061       0.72861912      -1.99983186       0.00000000
Si      -1.25160957      -1.61526753      -2.64516275       0.00000000
Si      -3.47220698      -0.25228323       0.09152596       0.00000000
Si      -1.19112480      -3.18842541      -0.87133548       0.00000000
Si      -0.04810437       3.60732276      -0.02050487       0.00000000
Si       1.36632375      -2.93371497       1.82521087       0.00000000
Si      -0.68000976      -2.31547689       2.86353440       0.00000000
