10
Lattice="16.28999089631971 0.0 0.0 0.0 16.28999089631971 0.0 0.0 0.0 34.69518985606464" Properties=species:S:1:pos:R:3:initial_magmoms:R:1 pbc="T T T"
Si      -2.13232842      -0.07198551      -1.01580634       0.00000000
Si       0.57399444       2.07663291       1.02687411       0.00000000
Si       1.79136243       0.03152115      -1.65208178       0.00000000
Si      -0.11868894      -2.11229172       1.22019581       0.00000000
Si       1.50573357       1.32203124       3.01338301       0.00000000
Si      -2.20786515       1.89208350      -2.32176871       0.00000000
Si      -0.91057842      -3.59532192      -0.49745991       0.00000000
Si       2.58950727      -2.19714633      -1.70731655       0.00000000
Si       2.07547632      -2.55485844       1.98748037       0.00000000
Si      -2.64342717      -2.37353445      -1.60302275       0.00000000
