10
Lattice="16.28999089631971 0.0 0.0 0.0 16.28999089631971 0.0 0.0 0.0 34.69518985606464" Properties=species:S:1:pos:R:3:initial_magmoms:R:1 pbc="T T T"
Si      -1.34814411      -1.36723599      -1.35416096       0.00000000
Si       1.35319401      -1.36021500       1.35925421       0.00000000
Si       1.34449515       1.34315937      -1.38593483       0.00000000
Si      -1.36220238       1.35580041       1.36001751       0.00000000
Si      -0.27166833       2.49810408      -2.76424365       0.00000000
Si       2.71217097      -0.00066789       2.71684306       0.00000000
Si       2.71446786      -2.71515204       0.00010409       0.00000000
Si       2.71573848       2.71440270      -0.00180415       0.00000000
Si      -0.00285075       2.71454931       2.71698184       0.00000000
Si      -0.00280188      -2.71516833       2.71673897       0.00000000
