10
Lattice="16.28999089631971 0.0 0.0 0.0 16.28999089631971 0.0 0.0 0.0 34.69518985606464" Properties=species:S:1:pos:R:3:initial_magmoms:R:1 pbc="T T T"
Si       0.73720395       2.07330975       0.79868372       0.00000000
Si       1.77018543      -1.55158992      -0.03046239       0.00000000
Si      -1.90136880      -0.65177919       1.24857650       0.00000000
Si      -0.77502933       0.54457470      -2.19419442       0.00000000
Si       0.73070424      -1.01877660      -3.18349362       0.00000000
Si       1.66661361       3.07323882      -1.11291823       0.00000000
Si      -1.25252181       3.12854337       1.47308919       0.00000000
Si       3.14612028      -0.74593539      -1.78010710       0.00000000
Si      -3.40086330      -1.39834989      -0.36499360       0.00000000
Si       2.64367152      -1.38862476       2.18340421       0.00000000
