10
Lattice="16.28999089631971 0.0 0.0 0.0 16.28999089631971 0.0 0.0 0.0 34.69518985606464" Properties=species:S:1:pos:R:3:initial_magmoms:R:1 pbc="T T T"
Si       0.59254875      -2.15931999       0.54644955       0.00000000
Si       1.32512634       1.76053361       0.74625926       0.00000000
Si      -1.76823063      -0.02078278       1.53127306       0.00000000
Si      -0.93247218       0.64542446      -2.11824661       0.00000000
Si      -1.53308448       2.77849571      -1.26994874       0.00000000
Si      -2.94840366       1.69734470       0.41512818       0.00000000
Si      -1.44827874      -3.16827372      -0.12649873       0.00000000
Si       3.37302369       1.31482291      -0.35836682       0.00000000
Si       0.47749248       3.64326664      -0.38570664       0.00000000
Si       2.17574127      -2.97693138      -1.00085270       0.00000000
