10
Lattice="16.28999089631971 0.0 0.0 0.0 16.28999089631971 0.0 0.0 0.0 34.69518985606464" Properties=species:S:1:pos:R:3:initial_magmoms:R:1 pbc="T T T"
Si       1.35738054      -1.35747828      -1.35679085       0.00000000
Si       1.35690813       1.35725022       1.35786640       0.00000000
Si      -1.35765747       1.35755973      -1.35699902       0.00000000
Si      -1.35848826      -1.35757602       1.35915013       0.00000000
Si      -0.00177561       2.71202495      -2.71437970       0.00000000
Si       2.71340901       0.00050499      -2.71365110       0.00000000
Si       2.71394658      -2.71492398      -0.00024287       0.00000000
Si       2.71445157       2.71511189       0.00048573       0.00000000
Si      -0.00197109      -2.71622718      -2.71375518       0.00000000
Si      -2.71546155      -2.71477737       0.00027756       0.00000000
