10
Lattice="16.28999089631971 0.0 0.0 0.0 16.28999089631971 0.0 0.0 0.0 34.69518985606464" Properties=species:S:1:pos:R:3:initial_magmoms:R:1 pbc="T T T"
Si      -0.98596854       1.68020177      -1.36601978       0.00000000
Si       1.09061550       1.70368218       1.30218059       0.00000000
Si       1.72755450      -1.03895991      -1.33857587       0.00000000
Si      -1.57275063      -1.49356494       1.61509669       0.00000000
Si       1.81506438      -0.06428034       2.70979993       0.00000000
Si      -2.33494344       0.34763157      -2.72999254       0.00000000
Si       0.38231001      -2.36854971      -2.72985376       0.00000000
Si      -2.25800577       3.08924279       0.05363879       0.00000000
Si      -2.69612532      -2.76721488      -0.05599807       0.00000000
Si       2.94987465      -2.54935242       0.26271212       0.00000000
