10
Lattice="16.28999089631971 0.0 0.0 0.0 16.28999089631971 0.0 0.0 0.0 34.69518985606464" Properties=species:S:1:pos:R:3:initial_magmoms:R:1 pbc="T T T"
Si      -1.57934808       0.01260846       1.74034639       0.00000000
Si       1.79080857      -1.21279050       1.00543247       0.00000000
Si       0.81288729       2.16466637      -0.61684613       0.00000000
Si      -0.83206062      -1.33180524      -1.89050726       0.00000000
Si       2.77081497      -2.05164405      -0.94658939       0.00000000
Si       1.15766514      -2.38703886      -2.56491273       0.00000000
Si      -3.45251889       1.12897749       0.80766978       0.00000000
Si       2.73323394       1.77219629      -1.97377576       0.00000000
Si      -0.91996146       3.38645384      -1.72240897       0.00000000
Si      -0.92965401       1.35890595       3.61440812       0.00000000
