10
Lattice="16.28999089631971 0.0 0.0 0.0 16.28999089631971 0.0 0.0 0.0 34.69518985606464" Properties=species:S:1:pos:R:3:initial_magmoms:R:1 pbc="T T T"
Si       1.70002440       1.08680641       1.25783873       0.00000000
Si      -1.07082315      -1.68009312       1.31596708       0.00000000
Si       1.10485296      -1.41805218      -1.82795808       0.00000000
Si      -1.66949694       1.98377942      -0.09885294       0.00000000
Si      -2.02724163       0.48524929      -2.66574330       0.00000000
Si      -2.19349737      -0.14239857       2.67447882       0.00000000
Si       2.38348764       2.87440259      -0.22302709       0.00000000
Si       0.52733988       2.57153891       2.67013151       0.00000000
Si      -3.53991474       1.04924819       1.13463951       0.00000000
Si      -2.85939999      -2.65373013      -0.00561438       0.00000000
