10
Lattice="16.28999089631971 0.0 0.0 0.0 16.28999089631971 0.0 0.0 0.0 34.69518985606464" Properties=species:S:1:pos:R:3:initial_magmoms:R:1 pbc="T T T"
Si       1.35856971      -1.35139496       1.35994812       0.00000000
Si      -1.35769005      -1.35591616      -1.35689494       0.00000000
Si       1.35843939       1.35975562      -1.35713780       0.00000000
Si      -1.35980775       1.36522906       1.36241148       0.00000000
Si       2.69026092       0.00243698       2.70771822       0.00000000
Si       0.00032580      -2.71306107      -2.71417152       0.00000000
Si       2.71262709      -2.71558602       0.00041634       0.00000000
Si      -2.71427238       0.00096437      -2.71424091       0.00000000
Si       2.71480995       0.00232133      -2.71417152       0.00000000
Si      -2.71523349      -2.71377783       0.00048573       0.00000000
