10
Lattice="16.28999089631971 0.0 0.0 0.0 16.28999089631971 0.0 0.0 0.0 34.69518985606464" Properties=species:S:1:pos:R:3:initial_magmoms:R:1 pbc="T T T"
Si      -0.01299942      -1.80630103      -1.49005515       0.00000000
Si      -1.24512615       0.01234130       2.00264217       0.00000000
Si      -0.02622690       1.76932858      -1.61353540       0.00000000
Si       2.24704260      -0.50353090       0.80152872       0.00000000
Si      -1.17652896       2.43777244       2.31732772       0.00000000
Si       1.59811416      -1.21538128      -3.14820859       0.00000000
Si       1.50270363       1.14193552      -3.32466843       0.00000000
Si       1.88696844      -1.89096016       2.84042739       0.00000000
Si       1.46075688       3.44162740       1.13387413       0.00000000
Si      -2.22039216       2.21189530      -2.38081995       0.00000000
