10
Lattice="16.28999089631971 0.0 0.0 0.0 16.28999089631971 0.0 0.0 0.0 34.69518985606464" Properties=species:S:1:pos:R:3:initial_magmoms:R:1 pbc="T T T"
Si       1.24512615      -0.01234130      -2.00264217       0.00000000
Si       0.06859719       2.42543113       0.31468555       0.00000000
Si      -2.17955313      -1.12299417      -0.09690372       0.00000000
Si       0.35774469       1.49853013       2.56689036       0.00000000
Si       2.02724163      -0.48524929       2.66574330       0.00000000
Si      -2.49186501      -1.16534817       2.36715004       0.00000000
Si       3.49216875      -0.51587221      -1.20111345       0.00000000
Si       3.13209459      -1.90330146       0.83778522       0.00000000
Si      -3.50969679      -0.08923662      -1.86986361       0.00000000
Si      -2.16609759       3.33262123      -0.66458673       0.00000000
