10
Lattice="16.28999089631971 0.0 0.0 0.0 16.28999089631971 0.0 0.0 0.0 34.69518985606464" Properties=species:S:1:pos:R:3:initial_magmoms:R:1 pbc="T T T"
Si      -1.35567009      -1.35469269      -1.35717250       0.00000000
Si       1.35966114       1.35993807      -1.35769293       0.00000000
Si       1.36686132      -1.36006839       1.35269682       0.00000000
Si      -1.36352187       1.36653552       1.35172535       0.00000000
Si      -0.00330687       2.69379585       2.71826556       0.00000000
Si      -0.00079821      -2.70094716       2.71840434       0.00000000
Si       2.71445157      -2.71217097      -0.00298379       0.00000000
Si       0.00234576      -2.71241532      -2.71548994       0.00000000
Si      -2.71480995      -2.71327869      -0.00006939       0.00000000
Si      -2.71329498       0.00329058      -2.71528177       0.00000000
