10
Lattice="16.28999089631971 0.0 0.0 0.0 16.28999089631971 0.0 0.0 0.0 34.69518985606464" Properties=species:S:1:pos:R:3:initial_magmoms:R:1 pbc="T T T"
Si      -1.71427815      -0.93921624       1.40067825       0.00000000
Si      -1.11386133       0.23866479      -2.12483870       0.00000000
Si       1.03223214       1.73374470       1.37089935       0.00000000
Si       2.35880829      -1.80950949      -1.93266194       0.00000000
Si      -0.20504223      -2.19849840       2.85343258       0.00000000
Si      -3.21367491       1.03039137      -1.36647082       0.00000000
Si       2.50608618       0.51482916       2.86057980       0.00000000
Si       2.92822524      -2.61521289       0.17388663       0.00000000
Si       0.00477297       1.85521923      -3.54366459       0.00000000
Si       2.77047288       2.87445195       0.27460880       0.00000000
