10
Lattice="16.28999089631971 0.0 0.0 0.0 16.28999089631971 0.0 0.0 0.0 34.69518985606464" Properties=species:S:1:pos:R:3:initial_magmoms:R:1 pbc="T T T"
Si      -1.36021500      -1.32726033      -1.36654021       0.00000000
Si      -1.46173428       1.20928815       1.40217219       0.00000000
Si       1.36721970       1.38434049      -1.35620103       0.00000000
Si       0.84563019      -1.74729798       1.36674838       0.00000000
Si      -2.70319518      -2.68056837       0.01804151       0.00000000
Si       2.69998605      -2.69325828       0.01974157       0.00000000
Si      -0.18438651       2.24039628       3.08554904       0.00000000
Si       0.00330687      -2.69379585      -2.71826556       0.00000000
Si      -0.81679689      -3.51381816       1.28330640       0.00000000
Si      -2.69926929       2.72512152       0.00673087       0.00000000
