10
Lattice="16.28999089631971 0.0 0.0 0.0 16.28999089631971 0.0 0.0 0.0 34.69518985606464" Properties=species:S:1:pos:R:3:initial_magmoms:R:1 pbc="T T T"
Si      -1.05023259      -1.79940969       1.09307257       0.00000000
Si      -0.75316815       1.88779923       1.18879665       0.00000000
Si      -0.48210255      -0.62573148      -2.24731279       0.00000000
Si       2.32275852       0.27909657      -0.51838112       0.00000000
Si      -2.68653051       1.01248866       2.34685334       0.00000000
Si      -1.51211925       3.36196278      -0.52851212       0.00000000
Si       1.83435174      -1.98623970       2.61782293       0.00000000
Si       2.59796178       2.07645372      -2.12754493       0.00000000
Si      -2.14452963      -2.39225166      -2.33075477       0.00000000
Si      -1.32773274       1.12156650      -3.61406117       0.00000000
