10
Lattice="16.28999089631971 0.0 0.0 0.0 16.28999089631971 0.0 0.0 0.0 34.69518985606464" Properties=species:S:1:pos:R:3:initial_magmoms:R:1 pbc="T T T"
Si      -1.46083833       1.78235406      -0.16865341       0.00000000
Si       0.75311928      -0.12100212       2.23464904       0.00000000
Si      -1.16752059      -2.01497526      -0.40225626       0.00000000
Si       1.92800295       0.25365159      -1.36452788       0.00000000
Si       1.05671601      -2.47081833       2.53979340       0.00000000
Si       0.02857266      -3.67507287       0.76721516       0.00000000
Si      -0.20992923       3.70551888      -0.69050405       0.00000000
Si       3.08807901       0.26168256       2.20599079       0.00000000
Si       3.66911073       1.01675664       0.05669197       0.00000000
Si      -3.07398816       1.44695925      -1.78697675       0.00000000
