10
Lattice="16.28999089631971 0.0 0.0 0.0 16.28999089631971 0.0 0.0 0.0 34.69518985606464" Properties=species:S:1:pos:R:3:initial_magmoms:R:1 pbc="T T T"
Si      -1.35686503       1.35684297      -1.35779701       0.00000000
Si       1.35806288      -1.35768679      -1.35758884       0.00000000
Si       1.35924553       1.35648459       1.35921952       0.00000000
Si      -1.35859177      -1.36047564       1.35717250       0.00000000
Si      -2.71448992       2.71334385      -0.00083269       0.00000000
Si       2.71378510      -0.00105885      -2.71424091       0.00000000
Si       0.00050004       2.71415835      -2.71472665       0.00000000
Si      -2.71378945       0.00358380       2.71566342       0.00000000
Si      -2.71427815      -2.71563877      -0.00010409       0.00000000
Si      -2.71496233      -0.00187335      -2.71528177       0.00000000
