10
Lattice="16.28999089631971 0.0 0.0 0.0 16.28999089631971 0.0 0.0 0.0 34.69518985606464" Properties=species:S:1:pos:R:3:initial_magmoms:R:1 pbc="T T T"
Si      -0.32145057       2.12977089       0.90433063       0.00000000
Si      -2.05048746      -0.61302528      -1.11191207       0.00000000
Si       0.23170896      -1.38028428       1.97172874       0.00000000
Si       1.93306914       0.63578241      -1.37871822       0.00000000
Si      -1.21748202       3.26317112      -0.89923043       0.00000000
Si       2.88437256      -1.52880021      -1.71095955       0.00000000
Si      -1.66742811      -0.00153126      -3.35964120       0.00000000
Si       0.97202430      -3.45418047       1.17047758       0.00000000
Si       1.76275719       2.92412016       1.65336550       0.00000000
Si      -0.95055408       2.23581879      -2.96446276       0.00000000
