10
Lattice="16.28999089631971 0.0 0.0 0.0 16.28999089631971 0.0 0.0 0.0 34.69518985606464" Properties=species:S:1:pos:R:3:initial_magmoms:R:1 pbc="T T T"
Si      -1.40155902      -0.34889922      -1.80186100       0.00000000
Si      -0.09541053       2.35731680      -0.17645983       0.00000000
Si      -1.61111358      -0.59091975       1.65815344       0.00000000
Si       2.16510390      -0.68444064      -0.76624370       0.00000000
Si       0.18321363      -0.29071134      -3.54328294       0.00000000
Si       2.26742139       0.50363793      -2.79424807       0.00000000
Si      -2.65246812      -2.27206404      -1.28001035       0.00000000
Si      -1.62434106       2.98470986       1.53467319       0.00000000
Si      -1.59811416       1.21538128       3.14820859       0.00000000
Si       3.68940807       0.21677103       0.72998720       0.00000000
