10
Lattice="16.28999089631971 0.0 0.0 0.0 16.28999089631971 0.0 0.0 0.0 34.69518985606464" Properties=species:S:1:pos:R:3:initial_magmoms:R:1 pbc="T T T"
Si      -1.20940218       0.14118543      -2.05107668       0.00000000
Si      -0.65405979      -2.12408568       0.89138932       0.00000000
Si       0.51841296       2.18095407       1.25405834       0.00000000
Si       2.52180603      -0.50096637       0.53062853       0.00000000
Si       3.02686119       0.12758328      -1.71064729       0.00000000
Si       2.20964076       0.87000003       2.63777267       0.00000000
Si       0.87848712       3.56838333      -0.78484033       0.00000000
Si      -0.20895183      -1.31888727      -3.61128555       0.00000000
Si       0.19220571      -2.33592084       3.14674762       0.00000000
Si      -1.38155490       2.26561320      -3.07642420       0.00000000
