10
Lattice="16.28999089631971 0.0 0.0 0.0 16.28999089631971 0.0 0.0 0.0 34.69518985606464" Properties=species:S:1:pos:R:3:initial_magmoms:R:1 pbc="T T T"
Si       1.83442409       0.80980848      -1.18719169       0.00000000
Si      -1.10910465       1.52283807       1.51203457       0.00000000
Si       1.57099131      -1.20976056       1.50260441       0.00000000
Si      -1.98601164      -0.89454906      -1.35966157       0.00000000
Si      -2.49575832       2.83392243       0.11750573       0.00000000
Si      -2.66947488      -2.68214524       0.12120424       0.00000000
Si      -3.43310121       1.09644732      -1.17262546       0.00000000
Si      -2.47950090       0.16400772       2.89148833       0.00000000
Si       2.77562934       2.65873977       0.08334830       0.00000000
Si       3.63743387      -0.76825269      -1.00220547       0.00000000
