10
Lattice="16.28999089631971 0.0 0.0 0.0 16.28999089631971 0.0 0.0 0.0 34.69518985606464" Properties=species:S:1:pos:R:3:initial_magmoms:R:1 pbc="T T T"
Si      -1.35762489       1.35650088       1.35696433       0.00000000
Si       1.35686503      -1.35684297       1.35779701       0.00000000
Si       1.35736507       1.35731538      -1.35692963       0.00000000
Si      -1.35809730      -1.35871632      -1.35748476       0.00000000
Si       0.00143352      -2.71037744      -2.71524708       0.00000000
Si      -0.00172674       2.71368594       2.71528177       0.00000000
Si       0.00208512       2.71414206      -2.71493482       0.00000000
Si      -2.71554300      -2.71387002       0.00038165       0.00000000
Si       2.71492791      -2.71452976       0.00020817       0.00000000
Si      -2.71731861       0.00011403       2.71243676       0.00000000
