10
Lattice="16.28999089631971 0.0 0.0 0.0 16.28999089631971 0.0 0.0 0.0 34.69518985606464" Properties=species:S:1:pos:R:3:initial_magmoms:R:1 pbc="T T T"
Si       1.35762489      -1.35650088      -1.35696433       0.00000000
Si       1.35589815       1.35718506       1.35831744       0.00000000
Si      -1.35969372      -1.35638685       1.35547243       0.00000000
Si      -1.35801585       1.35883035      -1.35717250       0.00000000
Si      -2.70728397      -0.00428427       2.71115304       0.00000000
Si       0.00070047      -2.70976005       2.71649610       0.00000000
Si      -2.71428867      -2.71293660       0.00045104       0.00000000
Si       2.71448992      -2.71334385       0.00083269       0.00000000
Si       2.71498996       0.00081450      -2.71389396       0.00000000
Si       0.00013032       2.71494027      -2.71403274       0.00000000
