10
Lattice="16.28999089631971 0.0 0.0 0.0 16.28999089631971 0.0 0.0 0.0 34.69518985606464" Properties=species:S:1:pos:R:3:initial_magmoms:R:1 pbc="T T T"
Si      -1.32981786      -1.36060596      -1.38531031       0.00000000
Si       1.15561260      -1.57009536       1.35696433       0.00000000
Si       1.38202731       1.35757602      -1.37594261       0.00000000
Si      -1.85435586       0.94596030       1.34700680       0.00000000
Si       0.95050521       1.85078835       3.07593847       0.00000000
Si      -2.69998605       2.69325828      -0.01974157       0.00000000
Si      -2.69747739      -2.70148473      -0.01960279       0.00000000
Si      -3.51678294      -0.82055988       1.26356483       0.00000000
Si      -2.69667918      -0.00053757      -2.73800713       0.00000000
Si       2.13104151      -0.38825586       3.17693622       0.00000000
