10
Lattice="16.28999089631971 0.0 0.0 0.0 16.28999089631971 0.0 0.0 0.0 34.69518985606464" Properties=species:S:1:pos:R:3:initial_magmoms:R:1 pbc="T T T"
Si      -1.34759025       1.35210258       1.35568061       0.00000000
Si      -1.35459495      -1.35654975      -1.35502140       0.00000000
Si       1.35969372       1.35638685      -1.35547243       0.00000000
Si       1.36039419      -1.35337320       1.36102367       0.00000000
Si      -0.02277342      -2.71386839       2.70983462       0.00000000
Si      -2.71210581      -0.00024435      -2.71250615       0.00000000
Si       0.00177561      -2.71398405      -2.71205512       0.00000000
Si      -2.71445157       2.71217097       0.00298379       0.00000000
Si       0.00167787       2.71521720      -2.71264493       0.00000000
Si       2.71559187       2.71357191       0.00284501       0.00000000
