10
Lattice="16.28999089631971 0.0 0.0 0.0 16.28999089631971 0.0 0.0 0.0 34.69518985606464" Properties=species:S:1:pos:R:3:initial_magmoms:R:1 pbc="T T T"
Si       1.34760654      -1.34576577      -1.35297438       0.00000000
Si       1.34825814       1.33620354       1.36629734       0.00000000
Si      -1.36868254       1.36448298      -1.34867217       0.00000000
Si      -1.35975236      -1.34219826       1.39426168       0.00000000
Si      -0.39627054       2.24244882       2.64870166       0.00000000
Si      -2.22985176       0.44043273       2.75497309       0.00000000
Si       2.70236439      -2.70817992       0.01321887       0.00000000
Si      -0.00853596      -2.70589932      -2.70872438       0.00000000
Si       2.70542691       0.00869886      -2.70990401       0.00000000
Si      -2.72941156      -2.70267390       0.01346174       0.00000000
