10
Lattice="16.28999089631971 0.0 0.0 0.0 16.28999089631971 0.0 0.0 0.0 34.69518985606464" Properties=species:S:1:pos:R:3:initial_magmoms:R:1 pbc="T T T"
Si      -0.68693301      -1.94026932       1.09378347       0.00000000
Si      -0.71718354       0.35608311      -2.19093485       0.00000000
Si       1.96074585       0.86789862       1.06257860       0.00000000
Si      -1.78202826       1.81192041      -0.09562555       0.00000000
Si      -2.04641496      -0.54770238       2.49034544       0.00000000
Si       1.24667370       1.37920914      -2.83796581       0.00000000
Si       0.68748687       2.20362975       2.50397372       0.00000000
Si      -3.52026900       0.67121316       1.00066500       0.00000000
Si      -0.65555847       3.59779311       1.08245549       0.00000000
Si      -0.77400306      -1.51466049      -3.55414431       0.00000000
