10
Lattice="16.28999089631971 0.0 0.0 0.0 16.28999089631971 0.0 0.0 0.0 34.69518985606464" Properties=species:S:1:pos:R:3:initial_magmoms:R:1 pbc="T T T"
Si       1.52809974      -0.93714741      -1.47954250       0.00000000
Si       1.39173615       1.47421242       1.14428270       0.00000000
Si      -0.27520326      -1.79735715       1.60916380       0.00000000
Si      -1.21632543       1.76572197      -1.44571467       0.00000000
Si       0.15631884      -2.29056948      -2.84271727       0.00000000
Si      -0.24364953       1.98454554       3.08846344       0.00000000
Si       1.48056552      -1.20671433       3.18162008       0.00000000
Si       3.36200743      -1.85660388      -0.09895074       0.00000000
Si      -2.55847482       0.42945327      -2.84271727       0.00000000
Si      -2.59796178      -2.07645372       2.12754493       0.00000000
