10
Lattice="16.28999089631971 0.0 0.0 0.0 16.28999089631971 0.0 0.0 0.0 34.69518985606464" Properties=species:S:1:pos:R:3:initial_magmoms:R:1 pbc="T T T"
Si       0.72045783      -2.14980759      -0.57542005       0.00000000
Si      -0.20926134       0.99970101      -2.17493858       0.00000000
Si      -2.12160960      -0.92567925       0.70649855       0.00000000
Si       0.91865826       0.85169007       2.11661594       0.00000000
Si      -2.86192494       1.14821694       1.50774971       0.00000000
Si       2.49236415      -2.28568248       0.97538642       0.00000000
Si      -1.91853846      -0.53331831      -3.04103509       0.00000000
Si      -1.12081716       1.91132199       2.92896956       0.00000000
Si       1.66685847      -1.33178895       3.01765052       0.00000000
Si      -1.16056476       3.16428363      -1.84269726       0.00000000
