10
Lattice="16.28999089631971 0.0 0.0 0.0 16.28999089631971 0.0 0.0 0.0 34.69518985606464" Properties=species:S:1:pos:R:3:initial_magmoms:R:1 pbc="T T T"
Si       1.35713619       1.35470898      -1.35762354       0.00000000
Si      -1.35726651       1.35703845       1.35800519       0.00000000
Si       1.35834165      -1.35713619       1.35776232       0.00000000
Si      -1.35907470      -1.35933534      -1.35696433       0.00000000
Si       2.71433754      -0.00319284       2.71247146       0.00000000
Si      -0.00283446       2.71249677       2.71486543       0.00000000
Si       2.71599912       0.00039096      -2.71261024       0.00000000
Si       2.71510317       2.71461447       0.00000000       0.00000000
Si       2.71507059      -2.71484253      -0.00020817       0.00000000
Si      -2.71163340      -0.00057015      -2.71850843       0.00000000
