10
Lattice="16.28999089631971 0.0 0.0 0.0 16.28999089631971 0.0 0.0 0.0 34.69518985606464" Properties=species:S:1:pos:R:3:initial_magmoms:R:1 pbc="T T T"
Si       1.35454822       1.35647864      -1.35762354       0.00000000
Si       1.35651347      -1.35731538       1.35692963       0.00000000
Si      -1.35762489       1.35717792       1.35758884       0.00000000
Si      -1.35796698      -1.35990549      -1.35762354       0.00000000
Si       2.71032435      -0.00278559       2.71403274       0.00000000
Si       0.00089595      -2.71422351      -2.71261024       0.00000000
Si      -0.00193851       2.71234106       2.71486543       0.00000000
Si      -2.71510317      -2.71461447       0.00000000       0.00000000
Si       2.71465424      -2.71513575       0.00010409       0.00000000
Si       2.71471614       2.71512990       0.00010409       0.00000000
