10
Lattice="16.28999089631971 0.0 0.0 0.0 16.28999089631971 0.0 0.0 0.0 34.69518985606464" Properties=species:S:1:pos:R:3:initial_magmoms:R:1 pbc="T T T"
Si      -1.35443205      -1.35545832      -1.35686024       0.00000000
Si       1.36031274       1.35929562      -1.35727659       0.00000000
Si      -1.35405738       1.36419107       1.35953177       0.00000000
Si       1.36469475      -1.35733167       1.36275843       0.00000000
Si      -0.02236617       2.71802301       2.70730187       0.00000000
Si      -2.71230129       0.00252495      -2.71458787       0.00000000
Si       0.00283446      -2.71249677      -2.71486543       0.00000000
Si      -2.71262709       2.71558602      -0.00041634       0.00000000
Si       2.71599912       2.71445876       0.00000000       0.00000000
Si       0.00218286       2.71790735      -2.71458787       0.00000000
