10
Lattice="16.28999089631971 0.0 0.0 0.0 16.28999089631971 0.0 0.0 0.0 34.69518985606464" Properties=species:S:1:pos:R:3:initial_magmoms:R:1 pbc="T T T"
Si      -1.33900542      -1.35871632      -1.38111219       0.00000000
Si       1.37372094       1.35895841      -1.38537971       0.00000000
Si       1.33323876      -1.42623837       1.46823186       0.00000000
Si      -1.64398680       1.26164421       1.38669812       0.00000000
Si       2.73891819       2.68288059      -0.02324579       0.00000000
Si      -2.72606634       2.71663836      -0.03656875       0.00000000
Si      -2.71168227      -2.73290814       0.01564754       0.00000000
Si      -2.70370017      -0.00138465      -2.74387062       0.00000000
Si       2.72199451      -2.72864016      -0.00992283       0.00000000
Si       0.01229895       2.71307411      -2.74387062       0.00000000
