10
Lattice="16.28999089631971 0.0 0.0 0.0 16.28999089631971 0.0 0.0 0.0 34.69518985606464" Properties=species:S:1:pos:R:3:initial_magmoms:R:1 pbc="T T T"
Si      -0.10231749      -1.18807857       2.02800437       0.00000000
Si      -2.08420776      -0.79434927      -0.74903487       0.00000000
Si       1.52143713      -0.86928327      -1.60513916       0.00000000
Si       0.12696426       2.40486731       0.15144459       0.00000000
Si      -2.26742139      -0.50363793       2.79424807       0.00000000
Si       2.04742494       1.00989270      -2.96116672       0.00000000
Si      -1.76275719      -2.92412016      -1.65336550       0.00000000
Si       0.17031195      -2.28833775      -3.03208373       0.00000000
Si       1.42198668      -0.28686690       3.52423527       0.00000000
Si      -0.30186999       2.94789446       2.43067697       0.00000000
