10
Lattice="16.28999089631971 0.0 0.0 0.0 16.28999089631971 0.0 0.0 0.0 34.69518985606464" Properties=species:S:1:pos:R:3:initial_magmoms:R:1 pbc="T T T"
Si       1.52430417       0.90121167       1.49623090       0.00000000
Si       0.10231749       1.18807857      -2.02800437       0.00000000
Si       0.31237704      -2.35322082      -0.28842127       0.00000000
Si      -2.16510390       0.68444064       0.76624370       0.00000000
Si      -1.98189027       0.39372930      -2.77703924       0.00000000
Si      -0.26865468      -3.10829490       1.86087755       0.00000000
Si       0.49832739       0.38838618       3.65219120       0.00000000
Si      -3.56666292       0.33554142      -1.03561730       0.00000000
Si       3.62452567      -0.15988635       1.06413676       0.00000000
Si      -1.42873074      -3.11632587      -1.70964113       0.00000000
