10
Lattice="16.28999089631971 0.0 0.0 0.0 16.28999089631971 0.0 0.0 0.0 34.69518985606464" Properties=species:S:1:pos:R:3:initial_magmoms:R:1 pbc="T T T"
Si       2.15052272       0.33713784       0.83809747       0.00000000
Si      -0.76421277      -2.18703024      -0.39212525       0.00000000
Si      -1.22090487       0.32171121       2.01582635       0.00000000
Si       0.10726150       1.17696879      -2.09718662       0.00000000
Si      -1.99260162      -1.77800463      -2.33838771       0.00000000
Si       2.21100749      -1.23602004       2.61192474       0.00000000
Si      -1.73841246       0.33888087      -3.26870505       0.00000000
Si       1.24294166      -3.44158667      -0.74494084       0.00000000
Si       2.20304168       2.68102449       1.48342837       0.00000000
Si      -1.63176183      -1.82794977       2.98965149       0.00000000
