10
Lattice="16.28999089631971 0.0 0.0 0.0 16.28999089631971 0.0 0.0 0.0 34.69518985606464" Properties=species:S:1:pos:R:3:initial_magmoms:R:1 pbc="T T T"
Si       1.33692030       1.34961021      -1.37572750       0.00000000
Si      -1.36034532       1.34920296       1.35675616       0.00000000
Si       1.35464382      -1.36295172       1.35689494       0.00000000
Si      -1.36953288      -1.36906047      -1.36957951       0.00000000
Si       2.44517787      -0.22064805      -2.76736622       0.00000000
Si      -0.00104256       2.71083519       2.71365110       0.00000000
Si      -2.71648456       2.71119357      -0.01013100       0.00000000
Si       2.71399545      -0.00420282       2.71385927       0.00000000
Si      -2.71601541      -0.00430056       2.71368579       0.00000000
Si       2.71603170       2.71373481       0.00034695       0.00000000
