10
Lattice="16.28999089631971 0.0 0.0 0.0 16.28999089631971 0.0 0.0 0.0 34.69518985606464" Properties=species:S:1:pos:R:3:initial_magmoms:R:1 pbc="T T T"
Si      -1.34463199      -1.34781831       1.36600590       0.00000000
Si       1.18946322      -1.56695139      -1.28503422       0.00000000
Si       1.36953288       1.36906047       1.36957951       0.00000000
Si      -1.39522873       1.23287607      -1.49526637       0.00000000
Si       2.25566001      -0.24226488      -2.87730289       0.00000000
Si      -2.71677099       2.70712107      -0.02760004       0.00000000
Si       2.70645318       2.71867068      -0.00614799       0.00000000
Si      -2.71988381      -2.71233387      -0.02187533       0.00000000
Si      -2.70641837       0.00677664       2.72675201       0.00000000
Si       0.01075140      -2.70801702       2.72609280       0.00000000
