10
Lattice="16.28999089631971 0.0 0.0 0.0 16.28999089631971 0.0 0.0 0.0 34.69518985606464" Properties=species:S:1:pos:R:3:initial_magmoms:R:1 pbc="T T T"
Si      -0.22055031      -1.76551020       1.55663526       0.00000000
Si      -0.89019963      -0.69476850      -2.08535555       0.00000000
Si      -0.67013802       2.26259955       0.34837460       0.00000000
Si       2.40528366       0.17741439      -0.27256556       0.00000000
Si       0.35528490      -3.44499291       0.00537776       0.00000000
Si       1.27894419      -1.01893950       3.17020535       0.00000000
Si      -2.85466530       0.66645648      -2.08056761       0.00000000
Si      -1.54893139       2.72678310      -1.84588922       0.00000000
Si       1.37068947       3.27155328       1.02132287       0.00000000
Si      -1.14308559      -3.04639290      -1.81039602       0.00000000
