10
Lattice="16.28999089631971 0.0 0.0 0.0 16.28999089631971 0.0 0.0 0.0 34.69518985606464" Properties=species:S:1:pos:R:3:initial_magmoms:R:1 pbc="T T T"
Si      -1.28169720       0.26285544       2.01724886       0.00000000
Si      -1.70947928      -0.05835078      -1.76026144       0.00000000
Si       1.51607772       1.93979691       0.00773703       0.00000000
Si       1.74060279      -1.84489137      -0.13305613       0.00000000
Si      -0.53251358      -2.82579372       1.95830170       0.00000000
Si       2.89158903       1.03381227       1.84627086       0.00000000
Si       3.12520392      -0.90306873      -1.85008734       0.00000000
Si       0.23964219       0.31208382       3.91580540       0.00000000
Si       1.56779847       2.90760210      -2.21848107       0.00000000
Si       2.28985272      -0.77032152       3.22450336       0.00000000
