10
Lattice="16.28999089631971 0.0 0.0 0.0 16.28999089631971 0.0 0.0 0.0 34.69518985606464" Properties=species:S:1:pos:R:3:initial_magmoms:R:1 pbc="T T T"
Si      -1.35963687       1.35612026       1.36608917       0.00000000
Si       1.35613924      -1.36199061       1.36688716       0.00000000
Si       1.36291588       1.35430173      -1.38296492       0.00000000
Si      -1.36981931      -1.37313297      -1.38704854       0.00000000
Si      -0.10739020       2.55737592      -2.85532551       0.00000000
Si       2.71648456      -2.71119357       0.01013100       0.00000000
Si      -2.71328913      -2.71458189       0.01110247       0.00000000
Si      -2.71296333       2.71892385       0.00836155       0.00000000
Si       2.71545829       2.71696090       0.00371239       0.00000000
Si      -2.71418508      -0.00035838       2.72371271       0.00000000
