10
Lattice="16.28999089631971 0.0 0.0 0.0 16.28999089631971 0.0 0.0 0.0 34.69518985606464" Properties=species:S:1:pos:R:3:initial_magmoms:R:1 pbc="T T T"
Si      -1.35381088      -1.35452979      -1.35710311       0.00000000
Si       1.35969046      -1.35026181       1.36036446       0.00000000
Si      -1.35084087       1.36101095       1.35932360       0.00000000
Si       1.36151494       1.36044193      -1.35620103       0.00000000
Si       0.01435638       2.68493313       2.72145752       0.00000000
Si      -2.71032435       0.00278559      -2.71403274       0.00000000
Si      -2.71108998      -2.71502172      -0.00156128       0.00000000
Si       0.00432988      -2.71235016      -2.71392866       0.00000000
Si      -2.71226286       2.71512665       0.00083269       0.00000000
Si       2.71586554       2.71424536       0.00090208       0.00000000
