10
Lattice="16.28999089631971 0.0 0.0 0.0 16.28999089631971 0.0 0.0 0.0 34.69518985606464" Properties=species:S:1:pos:R:3:initial_magmoms:R:1 pbc="T T T"
Si      -1.35969046       1.35026181      -1.36036446       0.00000000
Si       1.35163017       1.34203536       1.37705285       0.00000000
Si       1.35878148      -1.36208835      -1.35817866       0.00000000
Si      -1.36225777      -1.37632581       1.37441602       0.00000000
Si       2.35530594      -0.39967515       2.67232910       0.00000000
Si      -2.71053133       2.71127276      -0.00104086       0.00000000
Si       0.00182448       2.71070374      -2.71656549       0.00000000
Si      -2.72072645      -2.71005327      -0.00218580       0.00000000
Si      -2.71350134      -0.00426798      -2.71746757       0.00000000
Si       2.71648782       2.71517130      -0.00166537       0.00000000
