10
Lattice="16.28999089631971 0.0 0.0 0.0 16.28999089631971 0.0 0.0 0.0 34.54679606040008" Properties=species:S:1:pos:R:3:initial_magmoms:R:1 pbc="T T T"
Si      -0.55235124       1.15880544       1.96778660       0.00000000
Si      -1.37682072      -1.87986600       0.32518917       0.00000000
Si       1.94857820      -1.39411449      -0.07883583       0.00000000
Si      -0.78313167       1.38699576      -1.80818032       0.00000000
Si      -0.97431111      -2.69423568      -1.88694706       0.00000000
Si       1.42138819      -2.44115424      -2.13271310       0.00000000
Si      -0.50320431       3.50989946      -0.79250394       0.00000000
Si      -0.32088663      -2.80520316       2.39685805       0.00000000
Si      -2.88074610       0.82774377       2.19113176       0.00000000
Si      -3.49746921      -1.13552703       1.00759242       0.00000000
