10
Lattice="16.28999089631971 0.0 0.0 0.0 16.28999089631971 0.0 0.0 0.0 34.54679606040008" Properties=species:S:1:pos:R:3:initial_magmoms:R:1 pbc="T T T"
Si       0.03769343      -2.34534109       0.47125311       0.00000000
Si       1.33763380       0.94192038       1.75287086       0.00000000
Si      -2.19034755       0.98051139       0.26981063       0.00000000
Si       0.65001335      -0.38589381      -2.43406497       0.00000000
Si      -1.14433407      -0.57039435       3.35449577       0.00000000
Si      -3.29083479      -0.16980696      -1.46354129       0.00000000
Si       2.54690566       2.05956099      -1.54261895       0.00000000
Si       3.32331964       1.51933572       0.64301987       0.00000000
Si      -0.19604526       1.66879647      -3.37349652       0.00000000
Si      -0.96537213      -3.38252795      -1.41825041       0.00000000
