10
Lattice="16.28999089631971 0.0 0.0 0.0 16.28999089631971 0.0 0.0 0.0 34.54679606040008" Properties=species:S:1:pos:R:3:initial_magmoms:R:1 pbc="T T T"
Si      -0.96703956      -1.86973362      -0.97308015       0.00000000
Si       1.50149817      -0.61846614       1.66653837       0.00000000
Si       0.82083681       1.07232183      -1.98357450       0.00000000
Si      -2.06576748       0.89234991       0.84553331       0.00000000
Si      -2.18033505      -0.60738894      -2.62030685       0.00000000
Si      -2.10787713       2.75916762      -0.63928882       0.00000000
Si       0.04974966       3.25065321      -1.60635782       0.00000000
Si      -2.45070018      -2.84103790       0.52431702       0.00000000
Si      -0.35526861       0.17094726      -3.82156872       0.00000000
Si       3.68865873      -0.79151481       0.79509496       0.00000000
