10
Lattice="16.28999089631971 0.0 0.0 0.0 16.28999089631971 0.0 0.0 0.0 34.54679606040008" Properties=species:S:1:pos:R:3:initial_magmoms:R:1 pbc="T T T"
Si       1.34500014      -1.28669823       1.44352141       0.00000000
Si      -1.72356345      -1.09768536      -1.21748021       0.00000000
Si       1.75715343       0.71097705      -1.50806664       0.00000000
Si      -1.34765541       1.44181161       1.41836442       0.00000000
Si       2.71880100      -2.58691716       0.03001773       0.00000000
Si      -3.53510919       0.53766774      -1.33830359       0.00000000
Si      -2.79151956       2.61527805      -0.10527797       0.00000000
Si       0.00083079      -2.63772567       2.80819316       0.00000000
Si       0.13118337      -0.17156628      -3.87462714       0.00000000
Si      -2.75493222      -2.74502790       0.10022722       0.00000000
