10
Lattice="16.28999089631971 0.0 0.0 0.0 16.28999089631971 0.0 0.0 0.0 34.54679606040008" Properties=species:S:1:pos:R:3:initial_magmoms:R:1 pbc="T T T"
Si       1.35480672      -1.35785295      -1.35703345       0.00000000
Si      -1.35729909       1.35809730      -1.35724074       0.00000000
Si       1.34389242       1.36083402       1.37016124       0.00000000
Si      -1.37334474      -1.34157924       1.38207990       0.00000000
Si       0.08109162      -2.54933613       2.79770475       0.00000000
Si       2.70938538       2.71521720       0.00359287       0.00000000
Si       2.71352304       0.00045612      -2.71455056       0.00000000
Si      -2.71406061      -2.71414206       0.00573477       0.00000000
Si      -0.00073305       2.71476108      -2.71437783       0.00000000
Si      -2.71555929       0.00037467      -2.71406691       0.00000000
