10
Lattice="16.28999089631971 0.0 0.0 0.0 16.28999089631971 0.0 0.0 0.0 34.54679606040008" Properties=species:S:1:pos:R:3:initial_magmoms:R:1 pbc="T T T"
Si       1.34115570       1.35205371       1.35250782       0.00000000
Si      -1.35610992       1.35382932      -1.35475336       0.00000000
Si       1.35760860      -1.35995436      -1.35406243       0.00000000
Si      -1.34581464      -1.37526696       1.36808844       0.00000000
Si      -0.13242141       2.49331482       2.79846478       0.00000000
Si       2.54705553      -0.03670137       2.77804761       0.00000000
Si       0.00048870       2.71227935      -2.71161408       0.00000000
Si      -2.71433754      -0.00239463      -2.71192501       0.00000000
Si       2.71518462      -0.00241092      -2.71216683       0.00000000
Si       0.14533938      -2.64108141       2.78070772       0.00000000
