10
Lattice="16.28999089631971 0.0 0.0 0.0 16.28999089631971 0.0 0.0 0.0 34.54679606040008" Properties=species:S:1:pos:R:3:initial_magmoms:R:1 pbc="T T T"
Si       0.74347560      -0.18751419       2.21752553       0.00000000
Si       1.80529038       1.12617657      -0.99836842       0.00000000
Si      -0.57977739      -1.93391622      -1.22140266       0.00000000
Si      -2.04923313       1.22506601      -0.20589902       0.00000000
Si      -1.67975964       1.43238363      -2.60241160       0.00000000
Si      -0.82877004       1.29298342       3.20570264       0.00000000
Si       0.61040259       2.41015667      -2.66967425       0.00000000
Si      -1.36062225       3.39200873       0.29316428       0.00000000
Si      -2.10209418      -3.01151601       0.26269398       0.00000000
Si      -1.42785108      -0.77468724      -3.45005226       0.00000000
