10
Lattice="16.28999089631971 0.0 0.0 0.0 16.28999089631971 0.0 0.0 0.0 34.54679606040008" Properties=species:S:1:pos:R:3:initial_magmoms:R:1 pbc="T T T"
Si       0.58414311       0.34187823      -2.21210168       0.00000000
Si      -2.37157965       0.08014680      -0.03340677       0.00000000
Si       0.60172002      -1.79427834       1.46374857       0.00000000
Si      -0.61481718       2.37320932      -1.64632849       0.00000000
Si       1.67366718      -0.32988879       3.17952794       0.00000000
Si      -0.95646735      -1.11210201      -3.37187282       0.00000000
Si      -2.93105970       1.68936164      -1.68170443       0.00000000
Si      -2.87958330       1.26049774       2.10360434       0.00000000
Si       1.76502150      -3.65101254       0.35068472       0.00000000
Si      -0.41089896       4.08990491       0.20876641       0.00000000
