10
Lattice="16.28999089631971 0.0 0.0 0.0 16.28999089631971 0.0 0.0 0.0 34.54679606040008" Properties=species:S:1:pos:R:3:initial_magmoms:R:1 pbc="T T T"
Si       1.35565380      -1.35734400      -1.35952083       0.00000000
Si      -1.35708732       1.35763766      -1.35920990       0.00000000
Si       1.35643572       1.36221027       1.35889898       0.00000000
Si      -1.37552760      -1.36109070       1.34794764       0.00000000
Si      -0.05905125       2.55107401       2.84551754       0.00000000
Si       2.71000440      -2.71377972       0.00673663       0.00000000
Si      -2.71404432       2.71100923       0.00172734       0.00000000
Si       2.71388142       2.71514689      -0.00587296       0.00000000
Si      -2.71668330      -2.71314441      -0.00456018       0.00000000
Si       2.71362078      -0.00029116      -2.71627791       0.00000000
