10
Lattice="16.28999089631971 0.0 0.0 0.0 16.28999089631971 0.0 0.0 0.0 34.54679606040008" Properties=species:S:1:pos:R:3:initial_magmoms:R:1 pbc="T T T"
Si       2.15956530      -0.58130865      -0.80480261       0.00000000
Si      -1.52935407      -0.56404125      -1.73321373       0.00000000
Si      -0.92988207       1.92116115       1.08490819       0.00000000
Si      -0.03106503      -1.86541677       2.30316709       0.00000000
Si       2.20516101       2.45539170       1.02196389       0.00000000
Si      -0.97181253       1.33512840      -3.10752059       0.00000000
Si      -3.30429618       1.18120419       0.90709573       0.00000000
Si       2.44047006      -2.78537497       0.04950559       0.00000000
Si      -3.71651463      -0.39099258      -0.86177031       0.00000000
Si       2.11906836      -0.77219487      -3.16473012       0.00000000
