10
Lattice="16.28999089631971 0.0 0.0 0.0 16.28999089631971 0.0 0.0 0.0 34.54679606040008" Properties=species:S:1:pos:R:3:initial_magmoms:R:1 pbc="T T T"
Si       1.14507297       0.12325014       1.98018891       0.00000000
Si       0.48088080      -1.93899870      -1.15033986       0.00000000
Si       0.72868428       1.89587907      -1.16830420       0.00000000
Si      -2.28029049       0.08791713       0.57582632       0.00000000
Si       0.40715226       2.36206629       2.45658949       0.00000000
Si       3.43503972       0.12256596       1.19317791       0.00000000
Si       1.04739813       3.53597256       0.53219369       0.00000000
Si      -3.45639591      -0.81345744      -1.26216790       0.00000000
Si      -0.40736403      -3.78011242       0.04480722       0.00000000
Si       0.58753143      -1.77591951       3.35449577       0.00000000
