10
Lattice="16.28999089631971 0.0 0.0 0.0 16.28999089631971 0.0 0.0 0.0 34.54679606040008" Properties=species:S:1:pos:R:3:initial_magmoms:R:1 pbc="T T T"
Si       1.45371960      -1.24276410       1.35886444       0.00000000
Si      -1.33573113      -1.36554183      -1.36978123       0.00000000
Si       1.37648871       1.35220032      -1.36000448       0.00000000
Si      -1.50314346       1.31613426       1.40674632       0.00000000
Si      -2.67120162      -2.71161711      -0.00628752       0.00000000
Si       2.38808142       0.29116746       2.95855472       0.00000000
Si      -2.70904329       2.70488934      -0.01879347       0.00000000
Si      -2.69259039      -0.00711873      -2.72536372       0.00000000
Si       0.02213811       2.70863604      -2.72626193       0.00000000
Si       0.02103039      -2.72223819      -2.72574373       0.00000000
