10
Lattice="16.28999089631971 0.0 0.0 0.0 16.28999089631971 0.0 0.0 0.0 34.54679606040008" Properties=species:S:1:pos:R:3:initial_magmoms:R:1 pbc="T T T"
Si      -0.31715001      -0.80417214      -2.22270755       0.00000000
Si      -0.45807480      -1.66825890       1.64339201       0.00000000
Si      -1.82623932       1.48219452       0.40378318       0.00000000
Si       2.26453806       0.90080442      -0.00076003       0.00000000
Si       2.88668574       0.56177694      -2.28129895       0.00000000
Si      -3.34855611       0.40459473       1.88787982       0.00000000
Si      -1.83340692      -0.58870431       3.35518671       0.00000000
Si       1.55281167      -2.70218520       2.33805937       0.00000000
Si       2.25046350       3.24548928      -0.45342695       0.00000000
Si      -1.24646193       3.41611074       1.62518584       0.00000000
