10
Lattice="16.28999089631971 0.0 0.0 0.0 16.28999089631971 0.0 0.0 0.0 34.54679606040008" Properties=species:S:1:pos:R:3:initial_magmoms:R:1 pbc="T T T"
Si       1.02250701       1.92384900       0.94292078       0.00000000
Si      -0.67149009      -1.81742643       1.38197626       0.00000000
Si      -2.15871822       0.98722287      -0.50072154       0.00000000
Si       1.40375817      -1.16457210      -1.62325121       0.00000000
Si       0.03986163       2.03019012       3.08340691       0.00000000
Si       0.31846950      -0.26347446       3.70476593       0.00000000
Si      -3.31470549      -0.62468892      -1.71801313       0.00000000
Si       0.13051548       3.80024523      -0.21367205       0.00000000
Si       0.07151310      -2.73816981      -2.73514047       0.00000000
Si      -1.98428490       3.19261194      -1.23048847       0.00000000
