10
Lattice="16.28999089631971 0.0 0.0 0.0 16.28999089631971 0.0 0.0 0.0 34.54679606040008" Properties=species:S:1:pos:R:3:initial_magmoms:R:1 pbc="T T T"
Si       1.35803003      -1.35470898      -1.35641161       0.00000000
Si      -1.35257777       1.35580041      -1.36128271       0.00000000
Si      -1.35642221      -1.35692442       1.35682617       0.00000000
Si       1.35832814       1.35778779       1.35668799       0.00000000
Si       0.01979757       2.69369811      -2.72888404       0.00000000
Si       2.70448650      -0.01764207      -2.72135974       0.00000000
Si      -2.71347695      -2.71360449      -0.00013819       0.00000000
Si       2.71321794      -2.71485882      -0.00107095       0.00000000
Si      -2.71409597       0.00040725       2.71427419       0.00000000
Si       2.71303875       2.71577106      -0.00152006       0.00000000
