10
Lattice="16.28999089631971 0.0 0.0 0.0 16.28999089631971 0.0 0.0 0.0 34.54679606040008" Properties=species:S:1:pos:R:3:initial_magmoms:R:1 pbc="T T T"
Si      -0.88835886       1.53288804      -1.57647483       0.00000000
Si       0.01407456      -2.34468486       0.45266692       0.00000000
Si      -1.69163505       1.29679803       1.08024437       0.00000000
Si       2.47138848      -0.47153034      -0.20368802       0.00000000
Si       0.63622224      -2.68371234      -1.82787200       0.00000000
Si      -0.17759358       2.61830052       2.28136805       0.00000000
Si       2.39498838      -1.14183126      -2.44211438       0.00000000
Si       3.45787830       1.24312248       1.18105198       0.00000000
Si      -2.88652284       2.58077813      -0.59106146       0.00000000
Si      -2.25046350      -3.24548928       0.45342695       0.00000000
