10
Lattice="16.28999089631971 0.0 0.0 0.0 16.28999089631971 0.0 0.0 0.0 34.54679606040008" Properties=species:S:1:pos:R:3:initial_magmoms:R:1 pbc="T T T"
Si       0.87720021       1.79996585       1.38363592       0.00000000
Si      -1.87839990      -1.05018372       1.14233678       0.00000000
Si       1.81576485      -1.73130120      -0.04622364       0.00000000
Si       0.32752674       2.16788039      -1.61710188       0.00000000
Si       2.22521400       0.46810051       2.73060244       0.00000000
Si      -0.51658848      -2.25093591       2.71102821       0.00000000
Si       2.84021037       1.57015142      -1.52123447       0.00000000
Si       1.97656344       3.19366169      -0.06829905       0.00000000
Si       3.54584430      -0.91579122       1.36776857       0.00000000
Si       0.88130529      -3.57378165       1.33376069       0.00000000
