10
Lattice="16.28999089631971 0.0 0.0 0.0 16.28999089631971 0.0 0.0 0.0 34.54679606040008" Properties=species:S:1:pos:R:3:initial_magmoms:R:1 pbc="T T T"
Si      -1.34801379       1.33186534      -1.34696651       0.00000000
Si       1.34237745       1.35624984       1.34956443       0.00000000
Si       1.32063030      -1.38389173      -1.36283386       0.00000000
Si      -1.37394747      -1.35326653       1.34562610       0.00000000
Si      -2.22521400      -0.46810051      -2.73060244       0.00000000
Si      -0.40944915      -2.19940171      -2.77682608       0.00000000
Si       2.47961493       0.08317103      -2.83227371       0.00000000
Si       2.69436600      -2.70716101       0.00269120       0.00000000
Si       2.69935074      -0.00012139       2.70915435       0.00000000
Si      -0.01526373      -2.71486618       2.70711609       0.00000000
