10
Lattice="16.28999089631971 0.0 0.0 0.0 16.28999089631971 0.0 0.0 0.0 34.54679606040008" Properties=species:S:1:pos:R:3:initial_magmoms:R:1 pbc="T T T"
Si       1.35698958      -1.35727071       1.35782803       0.00000000
Si      -1.35716877       1.35733656       1.35779348       0.00000000
Si       1.35798327       1.35815106      -1.35648071       0.00000000
Si      -1.35762489      -1.35798605      -1.35717164       0.00000000
Si       2.71241532      -0.00002769       2.71399782       0.00000000
Si       2.71417464      -2.71427468       0.00044911       0.00000000
Si      -2.71371852       0.00065812       2.71489603       0.00000000
Si      -0.00097740      -2.71432355       2.71458511       0.00000000
Si       2.71417464      -0.00215191      -2.71548333       0.00000000
Si       0.00100998       2.71346277      -2.71638155       0.00000000
