10
Lattice="16.28999089631971 0.0 0.0 0.0 16.28999089631971 0.0 0.0 0.0 34.54679606040008" Properties=species:S:1:pos:R:3:initial_magmoms:R:1 pbc="T T T"
Si      -1.10048724      -1.15031835      -1.73335191       0.00000000
Si      -0.12399948       2.22726654      -0.76921939       0.00000000
Si      -0.70680681      -0.18621099       2.28223172       0.00000000
Si       2.19034755      -0.98051139      -0.26981063       0.00000000
Si       1.04601348      -1.55090574       3.08468514       0.00000000
Si      -0.91601928      -3.42667385      -1.26379160       0.00000000
Si       2.01979614       3.23507997      -0.09300003       0.00000000
Si       3.52798136      -0.03859101       1.48306024       0.00000000
Si      -2.46171222       2.93071761      -0.28573671       0.00000000
Si       0.32997024       2.32779213      -3.08544517       0.00000000
