10
Lattice="16.28999089631971 0.0 0.0 0.0 16.28999089631971 0.0 0.0 0.0 34.54679606040008" Properties=species:S:1:pos:R:3:initial_magmoms:R:1 pbc="T T T"
Si      -2.15290269       0.97407684       0.23930579       0.00000000
Si      -0.70071435      -1.72643098      -1.48958958       0.00000000
Si       1.87315452       1.29116169      -0.72157933       0.00000000
Si       0.28530306      -0.73752812       2.28395906       0.00000000
Si      -3.04114752      -0.86703688       1.43445287       0.00000000
Si      -2.43258570      -2.60168309      -0.13569989       0.00000000
Si       3.62597481      -0.07353306       0.08087409       0.00000000
Si      -1.97152983      -0.57412313      -3.16728658       0.00000000
Si       1.31417946      -2.85152282      -2.10732119       0.00000000
Si       1.60217037       0.92900241       3.31262503       0.00000000
