10
Lattice="16.28999089631971 0.0 0.0 0.0 16.28999089631971 0.0 0.0 0.0 34.54679606040008" Properties=species:S:1:pos:R:3:initial_magmoms:R:1 pbc="T T T"
Si      -0.14289588      -0.06527403       2.34683426       0.00000000
Si      -1.75282029       1.36469475      -0.80245343       0.00000000
Si      -0.27992736      -2.12290370      -1.01567637       0.00000000
Si       2.91018311       0.19759770       0.34864646       0.00000000
Si       1.89877773       0.95329080       2.47317197       0.00000000
Si       2.48196788       1.51231473      -1.60162491       0.00000000
Si       1.18202751      -1.77494674      -2.88324266       0.00000000
Si       1.14433407       0.57039435      -3.35449577       0.00000000
Si      -1.04601348       1.55090574      -3.08468514       0.00000000
Si      -0.04914693      -2.35109402       2.76029055       0.00000000
