10
Lattice="16.28999089631971 0.0 0.0 0.0 16.28999089631971 0.0 0.0 0.0 34.54679606040008" Properties=species:S:1:pos:R:3:initial_magmoms:R:1 pbc="T T T"
Si       1.47369114      -1.17208179      -1.37603420       0.00000000
Si       1.78429257       0.94416840       1.25950779       0.00000000
Si      -1.23527070       1.54512279      -1.34514935       0.00000000
Si      -1.01786436      -1.81009593       1.63444438       0.00000000
Si      -0.16115697       0.16431723       2.81204168       0.00000000
Si       0.86653026      -3.22647885       1.43545473       0.00000000
Si       2.71016730      -2.52115443       0.04846918       0.00000000
Si       0.12149082      -2.52547128      -2.72177085       0.00000000
Si      -2.59102224       0.18681372      -2.71610517       0.00000000
Si      -2.65144185      -2.68954416       0.12961965       0.00000000
