10
Lattice="16.28999089631971 0.0 0.0 0.0 16.28999089631971 0.0 0.0 0.0 34.54679606040008" Properties=species:S:1:pos:R:3:initial_magmoms:R:1 pbc="T T T"
Si       1.26705249      -1.47238794      -1.29973756       0.00000000
Si       1.36259334       1.35128808       1.35125723       0.00000000
Si      -1.35956340      -1.36350558       1.35250091       0.00000000
Si      -1.32543585       1.38207618      -1.39525260       0.00000000
Si       2.71769813      -0.12626379      -2.45821319       0.00000000
Si      -2.33471538      -0.07882731      -2.94216713       0.00000000
Si      -2.69931816      -2.71642266      -0.03522393       0.00000000
Si       0.00320913       2.70909216       2.70870524       0.00000000
Si      -2.71156824      -0.00526167       2.71074351       0.00000000
Si       0.00444717      -2.71847520       2.70922345       0.00000000
