10
Lattice="16.28999089631971 0.0 0.0 0.0 16.28999089631971 0.0 0.0 0.0 34.54679606040008" Properties=species:S:1:pos:R:3:initial_magmoms:R:1 pbc="T T T"
Si       1.35671265      -1.35801585      -1.36048814       0.00000000
Si      -1.36058967       1.35668007      -1.36038450       0.00000000
Si       1.35293337       1.35757602       1.36753569       0.00000000
Si      -1.35801585      -1.35935163       1.36936667       0.00000000
Si      -2.55559149       0.15675867       2.73006208       0.00000000
Si       2.63094903      -0.10230120       2.74446811       0.00000000
Si       2.71326240      -2.71332756      -0.00100186       0.00000000
Si       2.71477881       2.71313208      -0.00141642       0.00000000
Si      -2.71735119       2.71337643      -0.00442199       0.00000000
Si      -2.71376739      -2.71766070      -0.00158915       0.00000000
