10
Lattice="16.28999089631971 0.0 0.0 0.0 16.28999089631971 0.0 0.0 0.0 34.54679606040008" Properties=species:S:1:pos:R:3:initial_magmoms:R:1 pbc="T T T"
Si       0.88847774      -0.73187712       1.99285519       0.00000000
Si      -0.80857044       2.21490243      -0.29430432       0.00000000
Si      -1.85903109      -1.48890600      -0.13563080       0.00000000
Si       1.78026961       0.38884230      -1.58486970       0.00000000
Si      -1.54681695      -1.69710849      -2.65716830       0.00000000
Si      -1.48390497       1.91730042      -2.56067905       0.00000000
Si       2.90625722       2.01158694      -0.27447445       0.00000000
Si      -0.56216790      -2.07800127       3.15133083       0.00000000
Si      -2.22019668       2.61894330       1.67583147       0.00000000
Si       0.78711651       1.60743204      -3.44265924       0.00000000
