10
Lattice="16.28999089631971 0.0 0.0 0.0 16.28999089631971 0.0 0.0 0.0 34.54679606040008" Properties=species:S:1:pos:R:3:initial_magmoms:R:1 pbc="T T T"
Si      -0.80221408       1.03262310      -1.93683266       0.00000000
Si      -1.50297634       0.51805458       1.74022673       0.00000000
Si       0.70597113      -2.24104788      -0.36077239       0.00000000
Si       2.04996129       0.94897395       0.77312318       0.00000000
Si       1.93270587      -0.19930815       2.85681435       0.00000000
Si       2.69165697      -1.66363254      -1.47062338       0.00000000
Si      -0.34089431      -0.51311871       3.52671165       0.00000000
Si       1.15210536       1.07447211      -3.37850581       0.00000000
Si      -1.15211514       3.31786575      -1.54427719       0.00000000
Si      -1.43674120       2.88450288       2.14007157       0.00000000
