10
Lattice="16.28999089631971 0.0 0.0 0.0 16.28999089631971 0.0 0.0 0.0 34.54679606040008" Properties=species:S:1:pos:R:3:initial_magmoms:R:1 pbc="T T T"
Si       1.34584722       1.34657379      -1.39023294       0.00000000
Si      -1.37143881      -1.36717083      -1.38449817       0.00000000
Si      -1.30202712       1.49889619       1.41341386       0.00000000
Si       1.27822743      -1.27589796       1.67818065       0.00000000
Si       2.70097227       2.69482605       0.00114004       0.00000000
Si       2.69295596      -2.71528236       0.00017273       0.00000000
Si      -0.35984610      -2.42820369       2.93406103       0.00000000
Si      -2.72500749       2.70881916      -0.03233582       0.00000000
Si      -0.01239669       2.70356075      -2.75134292       0.00000000
Si       2.70505128      -0.01150074      -2.75051380       0.00000000
