10
Lattice="16.28999089631971 0.0 0.0 0.0 16.28999089631971 0.0 0.0 0.0 34.54679606040008" Properties=species:S:1:pos:R:3:initial_magmoms:R:1 pbc="T T T"
Si       0.62980398       0.03051117      -2.28406270       0.00000000
Si       1.05793776      -1.97884404       0.76631746       0.00000000
Si       1.30494303       1.70202222       1.17828823       0.00000000
Si      -2.41673553       0.05843223      -0.54521784       0.00000000
Si      -2.39544450       1.98255231      -1.93932003       0.00000000
Si      -0.33332598       2.04867180      -3.06461344       0.00000000
Si      -0.39488589      -3.78354798       0.12578495       0.00000000
Si       1.73327229      -1.68124203       3.03269219       0.00000000
Si       2.95819884       0.36157284      -2.50740786       0.00000000
Si       0.01308087      -1.93275963      -3.46760205       0.00000000
