10
Lattice="16.28999089631971 0.0 0.0 0.0 16.28999089631971 0.0 0.0 0.0 34.54679606040008" Properties=species:S:1:pos:R:3:initial_magmoms:R:1 pbc="T T T"
Si       1.44386415      -1.17346644       1.52364238       0.00000000
Si       0.88361847       1.90145025      -1.23485661       0.00000000
Si      -1.27824372       1.50314346       1.54872682       0.00000000
Si      -0.74358963      -2.07761031      -1.23302563       0.00000000
Si      -2.63355380      -2.73797433       0.01523169       0.00000000
Si       2.79151956      -2.61527805       0.10527797       0.00000000
Si      -0.96917355       3.56420313      -1.08147078       0.00000000
Si       0.07506432      -2.53596204       2.90936006       0.00000000
Si      -2.69207400       2.84886036       0.29069763       0.00000000
Si      -2.63580834       0.17673021       2.91246927       0.00000000
