10
Lattice="16.28999089631971 0.0 0.0 0.0 16.28999089631971 0.0 0.0 0.0 34.54679606040008" Properties=species:S:1:pos:R:3:initial_magmoms:R:1 pbc="T T T"
Si      -1.30668351      -1.43417160      -1.18811335       0.00000000
Si      -1.31154278       1.40888952       1.27438020       0.00000000
Si       1.72290045       0.71534277      -1.37216841       0.00000000
Si       1.41383028      -1.34571690       1.25802919       0.00000000
Si       2.57239137       2.54127258      -0.10395482       0.00000000
Si      -2.66178830       0.04338027       2.62135708       0.00000000
Si       0.05626566      -2.67213015       2.62177164       0.00000000
Si       0.71109597       1.30929246      -3.45544299       0.00000000
Si       0.05105612       2.76532524       2.62425901       0.00000000
Si       2.77132485       0.03984534       2.61859333       0.00000000
