10
Lattice="16.28999089631971 0.0 0.0 0.0 16.28999089631971 0.0 0.0 0.0 34.54679606040008" Properties=species:S:1:pos:R:3:initial_magmoms:R:1 pbc="T T T"
Si      -1.35052734       1.35588186      -1.35710255       0.00000000
Si      -1.35471061      -1.35798327       1.35820805       0.00000000
Si       1.36039419       1.35713619       1.35803531       0.00000000
Si       1.36034532      -1.35681039      -1.36021176       0.00000000
Si       0.00703728       2.68229511      -2.72084499       0.00000000
Si      -2.69324118      -0.02207295      -2.72736398       0.00000000
Si      -2.71232630       2.71378368       0.00055275       0.00000000
Si      -2.71197408      -0.00029322       2.71524150       0.00000000
Si      -2.71303875      -2.71577106       0.00152006       0.00000000
Si       0.00294849       2.71441899       2.71544878       0.00000000
