10
Lattice="16.28999089631971 0.0 0.0 0.0 16.28999089631971 0.0 0.0 0.0 34.54679606040008" Properties=species:S:1:pos:R:3:initial_magmoms:R:1 pbc="T T T"
Si       1.35650414       1.35653346      -1.35644616       0.00000000
Si      -1.35841843      -1.35817875      -1.35665344       0.00000000
Si      -1.35765996       1.35583299       1.36003903       0.00000000
Si       1.35487514      -1.35839052       1.36069542       0.00000000
Si       2.70065720       0.01039302       2.71862709       0.00000000
Si       2.71307018       2.71360449       0.00096731       0.00000000
Si      -0.00123478       2.71409319      -2.71347961       0.00000000
Si       2.71394984      -0.00074934      -2.71385963       0.00000000
Si      -2.71641030       2.71223613       0.00196917       0.00000000
Si      -0.00115496      -2.71586880      -2.71368689       0.00000000
