10
Lattice="16.28999089631971 0.0 0.0 0.0 16.28999089631971 0.0 0.0 0.0 34.54679606040008" Properties=species:S:1:pos:R:3:initial_magmoms:R:1 pbc="T T T"
Si      -1.35875034       1.35640314      -1.35806986       0.00000000
Si       1.35765996      -1.35583299      -1.36003903       0.00000000
Si      -1.36184544      -1.35555606       1.36895211       0.00000000
Si       1.34448460       1.36987497       1.39144208       0.00000000
Si      -2.64267927       0.12302208       2.72564009       0.00000000
Si       2.71253509      -2.71422351       0.00065639       0.00000000
Si      -2.71477881      -2.71313208       0.00141642       0.00000000
Si       2.71175317       2.71860552       0.00335104       0.00000000
Si       2.71416409       0.00070047      -2.71648519       0.00000000
Si      -0.00075848      -2.71401174      -2.71669247       0.00000000
