10
Lattice="16.28999089631971 0.0 0.0 0.0 16.28999089631971 0.0 0.0 0.0 34.54679606040008" Properties=species:S:1:pos:R:3:initial_magmoms:R:1 pbc="T T T"
Si      -1.33639902       1.38416130      -1.39569134       0.00000000
Si       1.37743353      -1.33115364      -1.42854536       0.00000000
Si      -1.56554556      -1.30875489       1.25487852       0.00000000
Si       1.34977311       1.31812164       1.55201568       0.00000000
Si       2.67641442       2.59910208      -0.04425447       0.00000000
Si       2.59895547      -2.73383667      -0.01647883       0.00000000
Si       2.82673854      -0.26917596       2.60683359       0.00000000
Si      -2.68088362       0.01428633      -2.78713342       0.00000000
Si       0.03165147      -2.69993718      -2.78647703       0.00000000
Si       0.03086955       2.73289185      -2.78378238       0.00000000
