10
Lattice="16.28999089631971 0.0 0.0 0.0 16.28999089631971 0.0 0.0 0.0 34.54679606040008" Properties=species:S:1:pos:R:3:initial_magmoms:R:1 pbc="T T T"
Si       1.35490446      -1.36024432      -1.36352826       0.00000000
Si      -1.36086986       1.35637056      -1.36269913       0.00000000
Si       1.34071587       1.37256282       1.37634512       0.00000000
Si      -1.36309670      -1.36696232       1.38854015       0.00000000
Si       2.71156824      -2.71317185      -0.00051820       0.00000000
Si       2.71406061       2.71414206      -0.00573477       0.00000000
Si      -2.71822175      -2.71521458      -0.00283284       0.00000000
Si      -2.71711403       2.71658556      -0.00345468       0.00000000
Si       2.71329498      -0.00076563      -2.72052716       0.00000000
Si      -0.00149868       2.71451673      -2.71980168       0.00000000
