10
Lattice="16.28999089631971 0.0 0.0 0.0 16.28999089631971 0.0 0.0 0.0 34.54679606040008" Properties=species:S:1:pos:R:3:initial_magmoms:R:1 pbc="T T T"
Si       0.82979631      -2.08029816      -0.68250688       0.00000000
Si      -1.29510387      -0.40109238       1.91323718       0.00000000
Si       1.35650088       1.77565887       0.72334122       0.00000000
Si      -1.33584516       1.69251471      -1.09630864       0.00000000
Si      -0.74104839       2.92671027       0.94202256       0.00000000
Si       0.72767430      -1.51544241      -3.01517695       0.00000000
Si       2.87165007       0.78235983       2.19064811       0.00000000
Si      -1.98996685       1.78439031       2.57135401       0.00000000
Si      -3.29067774      -1.48331853       1.12643346       0.00000000
Si      -0.98645724      -3.72671217      -0.70779515       0.00000000
