10
Lattice="16.28999089631971 0.0 0.0 0.0 16.28999089631971 0.0 0.0 0.0 34.54679606040008" Properties=species:S:1:pos:R:3:initial_magmoms:R:1 pbc="T T T"
Si      -1.29733560       0.44362557       1.90795152       0.00000000
Si       0.04460202      -2.35201536      -0.22517614       0.00000000
Si       2.09673477       1.04663250       0.33779876       0.00000000
Si      -1.16190054       1.09910259      -1.75577280       0.00000000
Si      -3.44210048      -0.41648643       1.14177225       0.00000000
Si      -1.85676352       3.28458528      -1.09765596       0.00000000
Si      -0.07265340      -3.50029746       1.85851503       0.00000000
Si       0.13320333       1.50019497      -3.66900998       0.00000000
Si      -0.38613816      -0.48930273       3.93698963       0.00000000
Si      -2.00535927      -3.30098931      -0.99829932       0.00000000
