10
Lattice="16.28999089631971 0.0 0.0 0.0 16.28999089631971 0.0 0.0 0.0 34.54679606040008" Properties=species:S:1:pos:R:3:initial_magmoms:R:1 pbc="T T T"
Si       1.35767621       1.35711990       1.35658435       0.00000000
Si       1.35752145      -1.35827649      -1.35768984       0.00000000
Si      -1.35801244       1.35793440      -1.35779348       0.00000000
Si      -1.35765406      -1.36013355       1.35775894       0.00000000
Si      -0.00103915       2.71368594      -2.71413600       0.00000000
Si       2.71462506       2.71478884      -0.00051820       0.00000000
Si       2.71382685      -0.00060273      -2.71582880       0.00000000
Si      -2.71519750       2.71493837      -0.00041456       0.00000000
Si      -2.71514863      -2.71538010      -0.00051820       0.00000000
Si       2.71526037      -2.71583622      -0.00065639       0.00000000
