10
Lattice="16.2900001489832 0.0 0.0 0.0 16.2900001489832 0.0 0.0 0.0 29.16277083596932" Properties=species:S:1:pos:R:3:initial_magmoms:R:1 pbc="T T T"
Si      -1.39400047      -1.39170358      -1.30358752       0.00000000
Si       1.41532408      -1.29031462       1.38418175       0.00000000
Si       1.26034102       1.43964505      -1.38874281       0.00000000
Si      -1.38829897       1.36337527       1.35715078       0.00000000
Si       0.07071489      -2.76947922      -2.56651048       0.00000000
Si      -2.71225244      -2.68227884       0.15390069       0.00000000
Si      -0.22691970       2.69915528      -2.72678906       0.00000000
Si       0.07029135      -2.59548572       2.84983263       0.00000000
Si       2.72725553       2.72655506      -0.06780053       0.00000000
Si      -0.02262681       2.75902104       2.70279394       0.00000000
