10
Lattice="16.2900001489832 0.0 0.0 0.0 16.2900001489832 0.0 0.0 0.0 29.16277083596932" Properties=species:S:1:pos:R:3:initial_magmoms:R:1 pbc="T T T"
Si      -1.36011727      -1.33275007      -1.36744232       0.00000000
Si      -1.37430586       1.37876932       1.30958339       0.00000000
Si       1.33934752       1.35472528      -1.38671892       0.00000000
Si       1.32817258      -1.35860230       1.39995881       0.00000000
Si       2.67426416      -2.66125008      -0.03330388       0.00000000
Si      -0.00250866       2.73367380       2.63794760       0.00000000
Si      -2.71099811      -2.67839042       0.01291911       0.00000000
Si       2.70684416       2.71225244      -0.04059458       0.00000000
Si      -2.71029764       0.04650795       2.70878397       0.00000000
Si       2.67967244       0.01084914       2.74237948       0.00000000
