10
Lattice="16.2900001489832 0.0 0.0 0.0 16.2900001489832 0.0 0.0 0.0 29.16277083596932" Properties=species:S:1:pos:R:3:initial_magmoms:R:1 pbc="T T T"
H       -0.59973916       0.63946396      -1.24828324       0.00000000
Si       1.85353160       1.39432627       0.00198307       0.00000000
Si      -1.84323958       0.42642333       1.34629932       0.00000000
Si       0.51874528      -2.11998062      -0.96027172       0.00000000
Si      -3.10951016      -0.97098175      -0.11081853       0.00000000
Si      -2.31718085      -1.02350071      -2.37489941       0.00000000
Si       3.34607029      -0.06439437      -1.03373274       0.00000000
H        0.19994509      -0.35259705       3.63840562       0.00000000
Si      -0.19168117      -1.90573454      -3.15544097       0.00000000
Si       2.84204139      -2.30927042      -0.62848687       0.00000000
