10
Lattice="16.2900001489832 0.0 0.0 0.0 16.2900001489832 0.0 0.0 0.0 29.16277083596932" Properties=species:S:1:pos:R:3:initial_magmoms:R:1 pbc="T T T"
Si       1.36511830       1.36138789      -1.33408011       0.00000000
Si      -1.31369077       1.39445659       1.35860601       0.00000000
Si       1.40948151      -1.31142646       1.34939057       0.00000000
Si      -1.35711991      -1.38759850      -1.34664927       0.00000000
Si      -2.71269227      -0.07864812       2.53544046       0.00000000
Si       0.08690715      -2.70321149       2.66460237       0.00000000
Si      -0.01427004       2.69669549      -2.68524961       0.00000000
Si       2.67812164      -0.01198944      -2.71776610       0.00000000
Si      -2.71303436       2.69281847      -0.00618251       0.00000000
Si       2.72319281      -2.70668126      -0.00661995       0.00000000
