10
Lattice="16.2900001489832 0.0 0.0 0.0 16.2900001489832 0.0 0.0 0.0 29.16277083596932" Properties=species:S:1:pos:R:3:initial_magmoms:R:1 pbc="T T T"
Si       1.35031884       1.33933123      -1.37971985       0.00000000
Si      -1.36131459      -1.34871427      -1.36493433       0.00000000
Si      -1.35491262       1.37652130       1.34402462       0.00000000
Si       1.35891996      -1.35115777       1.36787977       0.00000000
Si       0.01943886      -2.71492238      -2.69108217       0.00000000
Si      -2.73063571       0.01752804       2.68110850       0.00000000
Si      -0.02489927       2.69513165      -2.71896178       0.00000000
Si       2.70349657       2.71202438      -0.03263314       0.00000000
Si      -2.70989854      -2.70644180       0.00554093       0.00000000
Si       0.01632421       2.74944252       2.68250831       0.00000000
