10
Lattice="16.2900001489832 0.0 0.0 0.0 16.2900001489832 0.0 0.0 0.0 29.16277083596932" Properties=species:S:1:pos:R:3:initial_magmoms:R:1 pbc="T T T"
Si      -2.20281527      -0.55703656       0.46873322       0.00000000
Si       0.14245605       2.02427687      -1.18479589       0.00000000
Si       0.77056588       0.66098305       2.19449851       0.00000000
Si       0.93305863      -1.94385314      -1.19444877       0.00000000
H       -0.91417852       2.91784854      -0.60801461       0.00000000
H        0.46116990       3.12699585       1.23702641       0.00000000
Si       1.95796028      -1.25478613       2.60470204       0.00000000
Si       2.69832449       1.79421320       1.48176039       0.00000000
Si       0.06025671      -2.71662305       2.46536232       0.00000000
Si       2.19719522       2.94156678      -0.54251503       0.00000000
