10
Lattice="16.2900001489832 0.0 0.0 0.0 16.2900001489832 0.0 0.0 0.0 29.16277083596932" Properties=species:S:1:pos:R:3:initial_magmoms:R:1 pbc="T T T"
Si      -0.88881499       1.12881556       0.44292416       0.00000000
H       -0.30576330      -1.65367937      -0.57934761       0.00000000
Si       2.04898880      -0.51478029      -1.53162872       0.00000000
Si       2.09385146      -1.66469141       0.57479821       0.00000000
Si       0.62071417       2.58095504       1.53159956       0.00000000
Si      -2.33978159       0.16643493       1.99878715       0.00000000
Si      -1.76143772       1.99503632      -1.58584232       0.00000000
Si      -0.89360425      -2.66331403      -1.51238130       0.00000000
Si       0.49075254      -2.63459476       1.98388497       0.00000000
Si       0.59609998      -0.28859364      -3.49577050       0.00000000
