10
Lattice="16.2900001489832 0.0 0.0 0.0 16.2900001489832 0.0 0.0 0.0 29.16277083596932" Properties=species:S:1:pos:R:3:initial_magmoms:R:1 pbc="T T T"
Si       1.39085650       1.34338744      -1.33906695       0.00000000
Si       1.36410832      -1.35866746       1.35175275       0.00000000
Si      -1.32457249       1.38220651       1.36820056       0.00000000
Si      -1.37401264      -1.36184401      -1.34839904       0.00000000
Si      -0.00092853      -2.73509103       2.67632581       0.00000000
Si      -2.67703346       2.73655712       0.01647697       0.00000000
Si      -2.72332964       0.04834872       2.69703137       0.00000000
Si      -0.02036250      -2.74901898      -2.67842552       0.00000000
Si       2.72179838       0.01185912       2.70799657       0.00000000
Si       2.72088614       2.71668332       0.03018347       0.00000000
