10
Lattice="16.2900001489832 0.0 0.0 0.0 16.2900001489832 0.0 0.0 0.0 29.16277083596932" Properties=species:S:1:pos:R:3:initial_magmoms:R:1 pbc="T T T"
Si      -1.84950146      -0.99828379       1.01311466       0.00000000
Si      -1.32152626       1.38178297      -1.35370666       0.00000000
Si       1.36910935      -1.39577608      -1.29374800       0.00000000
Si       1.25516080       1.29852478       1.52690436       0.00000000
Si      -2.66778074       2.60734484       0.13406126       0.00000000
Si       2.63990855       2.66623319       0.14231432       0.00000000
H       -0.70125193      -0.42909489       3.66389388       0.00000000
Si       2.72450253      -0.01897785      -2.61765031       0.00000000
Si      -2.71977842      -0.02085120      -2.64681308       0.00000000
Si      -3.49498695       0.70633441       1.30567558       0.00000000
