10
Lattice="16.2900001489832 0.0 0.0 0.0 16.2900001489832 0.0 0.0 0.0 29.16277083596932" Properties=species:S:1:pos:R:3:initial_magmoms:R:1 pbc="T T T"
Si       1.42627096       1.33525873       1.25027214       0.00000000
Si       1.30318372      -1.35897697      -1.36868466       0.00000000
Si      -1.35627283       1.24846561      -1.44565979       0.00000000
Si      -1.41545440      -1.45031500       1.21559761       0.00000000
Si      -0.58971430      -2.24586974      -2.46176947       0.00000000
Si      -2.28802826      -0.59906476      -2.53908581       0.00000000
Si      -0.01241298       2.66036879       2.55376051       0.00000000
Si       2.71901279      -0.09312993       2.58668528       0.00000000
Si      -2.70901073      -0.08281836       2.61926010       0.00000000
Si      -0.04585635      -2.79836139       2.57735319       0.00000000
