10
Lattice="16.2900001489832 0.0 0.0 0.0 16.2900001489832 0.0 0.0 0.0 29.16277083596932" Properties=species:S:1:pos:R:3:initial_magmoms:R:1 pbc="T T T"
Si      -1.30728880       1.22114728      -1.46287603       0.00000000
Si       1.27532782      -1.42809544      -1.29810638       0.00000000
Si       1.49112145       1.38645820       1.13883099       0.00000000
Si      -1.43079958      -1.29909493       1.33451027       0.00000000
H        0.36124704      -2.39972879      -2.01927254       0.00000000
Si      -2.13052025      -0.54815850      -2.82670217       0.00000000
Si       0.03732039       2.70031187       2.48781620       0.00000000
Si       2.69496875      -0.00913869       2.60549089       0.00000000
Si      -0.09640422      -2.78023062       2.57726133       0.00000000
Si      -2.77200417       2.59892291      -0.19995308       0.00000000
