10
Lattice="16.2900001489832 0.0 0.0 0.0 16.2900001489832 0.0 0.0 0.0 29.16277083596932" Properties=species:S:1:pos:R:3:initial_magmoms:R:1 pbc="T T T"
Si      -1.42627096      -1.33525873      -1.25027214       0.00000000
Si       1.29274183      -1.42838866       1.33641314       0.00000000
Si      -1.43868394       1.32511006       1.30348837       0.00000000
Si       1.34503273       1.30517110      -1.46565087       0.00000000
Si       2.63487494       2.66374734      -0.06442056       0.00000000
Si      -0.12308724      -2.69423570      -2.61895680       0.00000000
Si       2.62277147      -0.05509278       2.70566355       0.00000000
Si      -0.08757504       2.67711003       2.66396079       0.00000000
Si       2.61223184      -2.79990894      -0.05322206       0.00000000
Si      -0.09811467      -2.77177611       2.67548008       0.00000000
