10
Lattice="16.2900001489832 0.0 0.0 0.0 16.2900001489832 0.0 0.0 0.0 29.16277083596932" Properties=species:S:1:pos:R:3:initial_magmoms:R:1 pbc="T T T"
Si       0.82355725      -0.66955159       2.11482582       0.00000000
Si      -0.92603764      -1.80664247      -1.26782230       0.00000000
Si       1.87232375       0.86048668      -1.21920796       0.00000000
Si      -1.79857892       1.67912435      -0.03482035       0.00000000
Si       0.53856369       2.05027571      -2.74549990       0.00000000
Si      -2.27426647      -0.66938869      -2.77442937       0.00000000
Si      -0.78400513       3.36109944      -1.32708105       0.00000000
Si      -3.51340737       0.69716314      -1.35688540       0.00000000
Si      -0.09977625      -2.77097790       2.66681874       0.00000000
Si       3.06320421      -1.31799133       1.94372784       0.00000000
