10
Lattice="16.2900001489832 0.0 0.0 0.0 16.2900001489832 0.0 0.0 0.0 29.16277083596932" Properties=species:S:1:pos:R:3:initial_magmoms:R:1 pbc="T T T"
Si      -1.06850998       0.94121992       1.81891118       0.00000000
Si      -1.39854538      -1.32545215      -1.29797660       0.00000000
Si       1.42384375      -1.24769998       1.36936707       0.00000000
Si       1.39900150       1.47310471      -1.17683445       0.00000000
Si       0.69638122       2.25829901       2.57510183       0.00000000
Si       2.29291526       0.50226957       2.70303890       0.00000000
Si       2.71269227       0.07864812      -2.53544046       0.00000000
Si       0.00535941      -2.70343955      -2.55722505       0.00000000
Si      -1.23662278      -0.74903050       3.43295389       0.00000000
Si      -0.00034209       2.77146660      -2.54162297       0.00000000
