10
Lattice="16.2900001489832 0.0 0.0 0.0 16.2900001489832 0.0 0.0 0.0 29.16277083596932" Properties=species:S:1:pos:R:3:initial_magmoms:R:1 pbc="T T T"
Si      -1.24732531      -1.46729570       1.34906978       0.00000000
Si       1.36140418      -1.42975377      -1.30727953       0.00000000
Si      -1.46912995       1.37127592      -1.29237735       0.00000000
Si       1.40082598       1.41960835       1.32597286       0.00000000
H        0.87065164       1.20484099      -3.29116450       0.00000000
Si      -0.01816335       2.33365655      -2.84824034       0.00000000
Si      -2.64932417       0.03886794       2.60960139       0.00000000
Si       0.23374521      -2.67125051       2.74917441       0.00000000
Si       2.80510545       2.63933840      -0.15604999       0.00000000
Si      -3.17483958       0.03776022      -2.21354179       0.00000000
