10
Lattice="16.2900001489832 0.0 0.0 0.0 16.2900001489832 0.0 0.0 0.0 29.16277083596932" Properties=species:S:1:pos:R:3:initial_magmoms:R:1 pbc="T T T"
Si      -1.35322660      -1.30081516       1.41809514       0.00000000
Si       1.33211476       1.34807896       1.41803682       0.00000000
Si       1.46249992      -1.48588422      -1.12226508       0.00000000
Si      -1.33113736       1.35747829      -1.43511745       0.00000000
Si      -2.64306881      -2.65939139       0.01686483       0.00000000
Si       2.65080656       2.74383876       0.08280769       0.00000000
Si      -2.69583212       2.73546570      -0.03880982       0.00000000
Si      -0.02756268      -2.64458378       2.83724306       0.00000000
Si      -2.73698067       0.05571180       2.74922982       0.00000000
Si      -0.01104462       2.73264752       2.77098524       0.00000000
