10
Lattice="16.2900001489832 0.0 0.0 0.0 16.2900001489832 0.0 0.0 0.0 29.16277083596932" Properties=species:S:1:pos:R:3:initial_magmoms:R:1 pbc="T T T"
Si       1.36513459       1.33915204      -1.35811024       0.00000000
Si      -1.33837012       1.33967332       1.39080170       0.00000000
Si       1.35850456      -1.33617097       1.37750348       0.00000000
Si      -1.36080145      -1.33778368      -1.37986566       0.00000000
Si      -2.69949737      -2.68094795       0.01738101       0.00000000
Si      -2.69319314       2.68842017       0.01793510       0.00000000
Si      -0.01107720       2.67473657      -2.72441521       0.00000000
Si       0.02295261      -2.69431064      -2.71100034       0.00000000
Si       2.72259659       2.68579748       0.02630482       0.00000000
Si       2.70829397      -0.04541652      -2.71105867       0.00000000
