10
Lattice="16.2900001489832 0.0 0.0 0.0 16.2900001489832 0.0 0.0 0.0 29.16277083596932" Properties=species:S:1:pos:R:3:initial_magmoms:R:1 pbc="T T T"
H       -1.31080744       0.04833243      -1.79601840       0.00000000
Si       0.36769788      -0.01788642       2.34766138       0.00000000
Si       1.37717290       0.70385833      -1.85588957       0.00000000
Si      -0.93664243      -2.22013154      -0.45794299       0.00000000
Si      -1.94105126       1.57380949       0.72577388       0.00000000
Si      -2.40731993      -0.79837291       0.97718613       0.00000000
H        0.38408562      -2.51744033      -1.25647798       0.00000000
H       -1.65042137       0.28821897      -2.47171980       0.00000000
Si      -0.19899864       3.07191936       1.48482248       0.00000000
Si      -1.66904084      -0.90041347       3.14823776       0.00000000
