10
Lattice="16.2900001489832 0.0 0.0 0.0 16.2900001489832 0.0 0.0 0.0 29.16277083596932" Properties=species:S:1:pos:R:3:initial_magmoms:R:1 pbc="T T T"
Si       0.71042645      -0.21424608       2.19516925       0.00000000
Si       1.56631935       1.28195785      -1.25936510       0.00000000
Si      -0.28922732      -2.31243068      -0.61976721       0.00000000
Si      -2.12549967       0.88223383       0.78054156       0.00000000
H       -0.40805799       2.54519849       1.90715772       0.00000000
Si      -3.42625618      -0.43060986      -0.60868535       0.00000000
Si      -0.24867663      -2.27981810       2.84450750       0.00000000
Si      -2.62017811      -2.55891467      -0.06453721       0.00000000
Si       0.13118337       2.67434561      -2.50840657       0.00000000
Si       0.19168117       1.90573454       3.15544097       0.00000000
