10
Lattice="16.2900001489832 0.0 0.0 0.0 16.2900001489832 0.0 0.0 0.0 29.16277083596932" Properties=species:S:1:pos:R:3:initial_magmoms:R:1 pbc="T T T"
Si      -1.57882681       1.24392070      -1.22868586       0.00000000
Si      -1.28655163      -1.39150810       1.44039300       0.00000000
Si       1.34213311       1.28862046       1.52029024       0.00000000
Si       1.33628500      -0.83126242      -1.83646717       0.00000000
H        1.02688903       1.63475038      -2.79393926       0.00000000
Si      -0.05031981       2.61340472      -2.31584479       0.00000000
Si      -2.75346615      -2.67841811       0.11945071       0.00000000
Si      -2.65124639      -0.01352070       2.83670063       0.00000000
Si       2.73584036       2.75959119       0.35033995       0.00000000
Si      -2.83644741      -0.19917783      -2.70061839       0.00000000
