10
Lattice="16.2900001489832 0.0 0.0 0.0 16.2900001489832 0.0 0.0 0.0 29.16277083596932" Properties=species:S:1:pos:R:3:initial_magmoms:R:1 pbc="T T T"
Si       1.33307587       1.34679205      -1.37631656       0.00000000
Si       1.37621179      -1.33558453       1.36630498       0.00000000
Si      -1.30857571      -1.33276636      -1.44349008       0.00000000
Si      -1.32678793       1.37292121       1.39018929       0.00000000
Si       2.66955635       2.67959099       0.07952688       0.00000000
Si      -2.69376329      -2.67828779      -0.06920326       0.00000000
Si      -0.10909413       2.68760567      -2.69680099       0.00000000
Si       0.01107720      -2.67473657       2.72441521       0.00000000
Si      -2.68211594       0.01368360       2.74235032       0.00000000
Si       2.71937117      -2.72015309       0.01335655       0.00000000
