10
Lattice="16.2900001489832 0.0 0.0 0.0 16.2900001489832 0.0 0.0 0.0 29.16277083596932" Properties=species:S:1:pos:R:3:initial_magmoms:R:1 pbc="T T T"
Si      -1.36513459      -1.33915204       1.35811024       0.00000000
Si      -1.37621179       1.33558453      -1.36630498       0.00000000
Si       1.34315938      -1.38456856      -1.35294843       0.00000000
Si       1.35746200       1.34664544       1.38441506       0.00000000
Si       2.66185118       0.01119123      -2.68817756       0.00000000
Si      -2.72593604      -2.67693572      -0.02175543       0.00000000
Si      -0.00663003      -2.67532301       2.73561372       0.00000000
Si      -2.70299972       2.70850574       0.02388431       0.00000000
Si       2.72197757      -2.69586470       0.03712421       0.00000000
Si       2.71334387       2.71138907       0.04470653       0.00000000
