10
Lattice="16.2900001489832 0.0 0.0 0.0 16.2900001489832 0.0 0.0 0.0 29.16277083596932" Properties=species:S:1:pos:R:3:initial_magmoms:R:1 pbc="T T T"
Si       1.35588187       1.36474363      -1.33970853       0.00000000
Si       1.36115983      -1.32797710       1.38132380       0.00000000
Si      -1.34148151       1.37767789       1.35659377       0.00000000
Si      -1.35746200      -1.34664544      -1.38441506       0.00000000
Si      -0.06411744       2.66853008      -2.67119316       0.00000000
Si       2.71643897      -2.67524156       0.01058609       0.00000000
Si      -2.69347007       0.01140300       2.71062122       0.00000000
Si      -2.72259659      -2.68579748      -0.02630482       0.00000000
Si      -0.00506619      -2.68899032       2.72867298       0.00000000
Si       2.69076593       2.74892124       0.02712138       0.00000000
