10
Lattice="16.2900001489832 0.0 0.0 0.0 16.2900001489832 0.0 0.0 0.0 29.16277083596932" Properties=species:S:1:pos:R:3:initial_magmoms:R:1 pbc="T T T"
Si      -1.32924772      -1.35988921      -1.32582705       0.00000000
Si       1.34107426      -1.37813401       1.31290794       0.00000000
Si      -1.21875265       1.33646419       1.51217716       0.00000000
Si       1.44599815       1.39501045      -1.23667646       0.00000000
Si       2.31627512       0.41757786       2.42325128       0.00000000
Si       0.67078963       2.12219606       2.71581220       0.00000000
Si      -2.65678499       0.05890464      -2.61079706       0.00000000
Si       0.07322355       2.75740833      -2.56124951       0.00000000
Si      -2.69265557      -2.63751392       0.09597468       0.00000000
Si       0.06561612      -2.72453510      -2.63150263       0.00000000
