10
Lattice="16.2900001489832 0.0 0.0 0.0 16.2900001489832 0.0 0.0 0.0 29.16277083596932" Properties=species:S:1:pos:R:3:initial_magmoms:R:1 pbc="T T T"
Si      -1.08340067       1.41649696       1.48870987       0.00000000
Si       1.41833610       1.33569856      -1.34145830       0.00000000
Si      -2.02936098      -0.42223680      -1.22999819       0.00000000
Si       1.41742386      -1.54693099       1.21013834       0.00000000
H       -1.55232461      -2.60219069      -1.33620900       0.00000000
Si      -1.30248488      -0.76046608      -3.37865282       0.00000000
Si      -2.37479043      -0.02930571       2.86074825       0.00000000
Si      -2.28257274       2.95476168       0.12767461       0.00000000
Si       2.59761808      -0.21452301      -2.69184040       0.00000000
Si       2.94125564       2.47490714       0.01099436       0.00000000
