10
Lattice="16.2900001489832 0.0 0.0 0.0 16.2900001489832 0.0 0.0 0.0 29.16277083596932" Properties=species:S:1:pos:R:3:initial_magmoms:R:1 pbc="T T T"
Si      -1.34724817       1.28354287      -1.41101150       0.00000000
Si       1.26713558       1.52055423       1.28899447       0.00000000
Si      -1.34074846      -1.38157120       1.37948655       0.00000000
Si       1.42993784      -1.37453392      -1.30631716       0.00000000
Si       2.62990649       0.19181312       2.59166628       0.00000000
Si      -2.68185530       2.61317666      -0.00691158       0.00000000
Si      -2.53851959      -2.79070509      -0.11586369       0.00000000
Si       0.03512124       2.60071481      -2.78749429       0.00000000
Si      -2.72060921      -0.12538413      -2.69799374       0.00000000
Si       2.82727614      -0.01842855      -2.61741701       0.00000000
