10
Lattice="16.2900001489832 0.0 0.0 0.0 16.2900001489832 0.0 0.0 0.0 29.16277083596932" Properties=species:S:1:pos:R:3:initial_magmoms:R:1 pbc="T T T"
Si      -1.28291896       1.24442569      -1.46575002       0.00000000
Si      -1.36505314      -1.43033206       1.28132466       0.00000000
Si       1.32431348      -1.33957884      -1.42401810       0.00000000
Si       0.85827938       1.15189849       1.90080024       0.00000000
Si       1.88778296      -0.71035804       2.80117163       0.00000000
Si       0.31801110      -2.47044368       2.50782332       0.00000000
Si      -2.53544078       2.62415612      -0.06628698       0.00000000
Si       0.17764602       2.52115445      -2.77413774       0.00000000
Si      -2.59853195      -0.02850750       2.72867298       0.00000000
Si      -2.62467740      -0.24695640      -2.71992415       0.00000000
