10
Lattice="16.2900001489832 0.0 0.0 0.0 16.2900001489832 0.0 0.0 0.0 29.16277083596932" Properties=species:S:1:pos:R:3:initial_magmoms:R:1 pbc="T T T"
Si      -0.06006123      -2.34142688       0.24651290       0.00000000
Si       1.65695366       1.52702461       0.73560173       0.00000000
Si      -0.81490726       0.93763612      -2.03156610       0.00000000
Si      -1.71641216       0.17036082       1.65907003       0.00000000
H        2.82574488      -0.73792072      -0.54435228       0.00000000
H        3.16535880      -0.97780726       0.13134912       0.00000000
Si      -2.29216592       2.37856645      -0.92524723       0.00000000
Si       2.40191165       0.01112607      -2.66783944       0.00000000
Si       0.28530306       3.17816600       1.70596377       0.00000000
Si       2.53511498       0.54766980       2.65314140       0.00000000
