10
Lattice="16.2900001489832 0.0 0.0 0.0 16.2900001489832 0.0 0.0 0.0 29.16277083596932" Properties=species:S:1:pos:R:3:initial_magmoms:R:1 pbc="T T T"
Si       1.22315095      -1.44528139      -1.33359280       0.00000000
Si      -1.35288451       1.34532595      -1.32058621       0.00000000
Si      -1.44417367      -1.40103775       1.15635082       0.00000000
Si       1.41713227       1.31593879       1.33797655       0.00000000
H       -2.26696529       0.37369260      -2.04175237       0.00000000
Si       0.11748348       2.51577875      -2.68692035       0.00000000
Si      -0.00200367      -2.74185138       2.47683525       0.00000000
Si      -2.72461655      -0.00680922       2.55478150       0.00000000
Si       0.06675642       2.76428271       2.58301106       0.00000000
Si       2.74343151      -2.64829790      -0.07669896       0.00000000
