10
Lattice="16.2900001489832 0.0 0.0 0.0 16.2900001489832 0.0 0.0 0.0 29.16277083596932" Properties=species:S:1:pos:R:3:initial_magmoms:R:1 pbc="T T T"
Si       1.34959393       1.36301689      -1.35286094       0.00000000
Si      -1.34983828       1.38090331       1.34449122       0.00000000
Si       1.37720548      -1.35711991       1.34673676       0.00000000
Si      -1.34177473      -1.37293750      -1.37038776       0.00000000
Si       2.65456955      -0.06626772      -2.68105017       0.00000000
Si      -2.71487513       0.00447975       2.66906428       0.00000000
Si      -2.73430911      -0.00944820      -2.68568705       0.00000000
Si       2.72280836       2.69871545       0.02916277       0.00000000
Si       0.02521692      -2.72339480       2.70076421       0.00000000
Si      -2.69710274      -2.73217511      -0.01822673       0.00000000
