10
Lattice="16.2900001489832 0.0 0.0 0.0 16.2900001489832 0.0 0.0 0.0 29.16277083596932" Properties=species:S:1:pos:R:3:initial_magmoms:R:1 pbc="T T T"
Si       1.30728880      -1.22114728       1.46287603       0.00000000
Si       1.20989089       1.44910954      -1.40252514       0.00000000
Si      -1.46471536       1.37777563       1.26292295       0.00000000
Si      -0.82323145      -1.76930579      -1.36382614       0.00000000
Si      -2.48626127      -0.71861707      -2.59222037       0.00000000
Si       2.58261662      -2.64924272       0.16476966       0.00000000
Si      -0.12351078      -2.52024221       2.79738630       0.00000000
Si      -0.07071489       2.76947922       2.56651048       0.00000000
Si       2.79841026       0.16531092       2.60170702       0.00000000
Si      -0.33705639       2.61927238      -2.79353098       0.00000000
