10
Lattice="16.2900001489832 0.0 0.0 0.0 16.2900001489832 0.0 0.0 0.0 29.16277083596932" Properties=species:S:1:pos:R:3:initial_magmoms:R:1 pbc="T T T"
Si       1.70538383       1.44653572       0.68089237       0.00000000
Si      -1.31297401       1.30305340      -1.46889960       0.00000000
Si       1.23347881      -1.40182456      -1.44734832       0.00000000
Si      -1.26363160      -0.97932223       1.90389149       0.00000000
Si       1.09092502      -1.38321486       2.27866226       0.00000000
Si      -2.56464875      -2.25592719       0.28066251       0.00000000
Si       2.51680502       0.44359299       2.60554776       0.00000000
Si       3.45681134       1.18040599      -0.82787274       0.00000000
Si       2.59853195       0.02850750      -2.72867298       0.00000000
Si       2.91654306      -2.44193618      -0.22084966       0.00000000
