10
Lattice="16.2900001489832 0.0 0.0 0.0 16.2900001489832 0.0 0.0 0.0 29.16277083596932" Properties=species:S:1:pos:R:3:initial_magmoms:R:1 pbc="T T T"
Si       1.03508290       1.40007664       1.53177454       0.00000000
Si      -1.92775862      -1.13323015       0.71273812       0.00000000
Si       1.28829466      -1.97692184       0.17410174       0.00000000
Si      -0.50112927       1.14735358      -2.02427541       0.00000000
H       -2.23715459       1.33278265      -0.24473397       0.00000000
Si      -0.74036422      -3.04899933       1.12294165       0.00000000
Si       0.26207352       3.25487235      -1.41328620       0.00000000
Si      -2.69832449      -1.79421320      -1.48176039       0.00000000
Si       2.12191913       2.93905812       0.03435374       0.00000000
Si       2.01517076      -2.31515111      -1.97455289       0.00000000
