10
Lattice="16.2900001489832 0.0 0.0 0.0 16.2900001489832 0.0 0.0 0.0 29.16277083596932" Properties=species:S:1:pos:R:3:initial_magmoms:R:1 pbc="T T T"
Si       1.32448127       1.34291503      -1.37989483       0.00000000
Si      -1.31371130       1.39525480       1.35601052       0.00000000
Si       1.34815064      -1.35558865       1.36668409       0.00000000
Si      -1.37123683      -1.37292121      -1.33848369       0.00000000
Si      -2.63628566       0.00346977       2.67122232       0.00000000
Si      -0.08520973      -2.68837130       2.65582438       0.00000000
Si       2.62623147       2.74190025      -0.01997650       0.00000000
Si       2.68717236      -0.03741813      -2.71514145       0.00000000
Si      -0.04507117       2.69469182      -2.71114615       0.00000000
Si       2.72762043       0.03129309       2.68475385       0.00000000
