10
Lattice="16.2900001489832 0.0 0.0 0.0 16.2900001489832 0.0 0.0 0.0 29.16277083596932" Properties=species:S:1:pos:R:3:initial_magmoms:R:1 pbc="T T T"
Si      -0.76320280      -2.10751877      -0.61098921       0.00000000
Si       0.30796245       1.65327212      -1.61197216       0.00000000
Si      -1.24258492       1.47846412       1.33556742       0.00000000
Si       1.85984561      -0.31581423       1.44763994       0.00000000
H       -1.95971960      -0.45805851      -2.28787770       0.00000000
H       -0.17475912       2.38174463       1.91383600       0.00000000
Si       0.77284648      -2.25424280      -2.36807532       0.00000000
H       -2.49922811      -1.92208970       1.16855223       0.00000000
Si       1.57423303       3.05067720      -0.15485431       0.00000000
Si       2.11274770       2.00251343       2.02156327       0.00000000
