10
Lattice="16.2900001489832 0.0 0.0 0.0 16.2900001489832 0.0 0.0 0.0 29.16277083596932" Properties=species:S:1:pos:R:3:initial_magmoms:R:1 pbc="T T T"
Si       0.52735617       1.78489532       1.35551475       0.00000000
Si      -1.84794413       0.79853581      -1.18479589       0.00000000
Si       1.71641216      -0.17036082      -1.65907003       0.00000000
Si       0.17334189      -1.40978548       1.93334589       0.00000000
H       -2.27992887      -2.16464780       0.68307958       0.00000000
Si       1.65635093      -2.51178770      -1.41255713       0.00000000
Si       1.66588058      -2.86850613       0.89763009       0.00000000
Si      -0.57575377       2.20820563      -2.58431726       0.00000000
Si       2.00171522       3.00780518       0.04689374       0.00000000
Si       2.47937060       1.17905392       2.47950626       0.00000000
