10
Lattice="16.2900001489832 0.0 0.0 0.0 16.2900001489832 0.0 0.0 0.0 29.16277083596932" Properties=species:S:1:pos:R:3:initial_magmoms:R:1 pbc="T T T"
Si       1.40064679       1.38000736       1.27426727       0.00000000
Si      -1.31590621       1.33231024      -1.42798424       0.00000000
Si       1.36627489      -1.39051441      -1.32355235       0.00000000
Si      -1.36725229      -1.25972200       1.45178106       0.00000000
Si      -0.03779280       2.75765268       2.50064927       0.00000000
Si       0.08597862      -2.61946460       2.71365415       0.00000000
Si      -2.68195304      -2.65486277       0.07908943       0.00000000
Si       2.72442107       2.68646537      -0.14668874       0.00000000
Si       0.01477503      -2.75996586      -2.66597302       0.00000000
Si      -2.68770341      -0.02259423      -2.75634845       0.00000000
