10
Lattice="16.2900001489832 0.0 0.0 0.0 16.2900001489832 0.0 0.0 0.0 29.16277083596932" Properties=species:S:1:pos:R:3:initial_magmoms:R:1 pbc="T T T"
Si       1.19094562      -1.36010098      -1.49164657       0.00000000
Si      -1.38219022       1.45034758      -1.22684861       0.00000000
Si      -1.35257500      -1.33232653       1.44134079       0.00000000
Si       1.75945034       1.02591163       1.25685710       0.00000000
Si       1.32760243      -0.10928961       3.28926892       0.00000000
Si       0.30988467      -2.22340583       2.90446616       0.00000000
Si       2.59752197      -2.65338038      -0.15963701       0.00000000
H        3.43191207      -1.49977144       0.32854778       0.00000000
Si      -2.74532115       0.06323778      -2.58956656       0.00000000
Si       0.00430056       2.68872968      -2.65483284       0.00000000
