10
Lattice="16.2900001489832 0.0 0.0 0.0 16.2900001489832 0.0 0.0 0.0 29.16277083596932" Properties=species:S:1:pos:R:3:initial_magmoms:R:1 pbc="T T T"
Si      -0.76404988       0.42828039      -2.11894068       0.00000000
Si      -1.78064363      -1.05955862       1.06056832       0.00000000
Si       0.91917955       1.89328898       1.02296584       0.00000000
Si       1.57130083      -1.77694580      -0.22527103       0.00000000
Si       2.26046053       0.52256691       2.36738708       0.00000000
Si      -0.51367257      -2.36649719       2.48543214       0.00000000
Si       1.48289500      -2.02398202      -2.55626559       0.00000000
Si      -2.66175344      -1.03355653      -2.25828040       0.00000000
Si       1.26460900       1.50035788      -3.06778059       0.00000000
Si       3.44681742      -0.88423424       0.89760384       0.00000000
