10
Lattice="16.2900001489832 0.0 0.0 0.0 16.2900001489832 0.0 0.0 0.0 29.16277083596932" Properties=species:S:1:pos:R:3:initial_magmoms:R:1 pbc="T T T"
Si       1.36190917      -1.36590022      -1.33142630       0.00000000
Si      -1.35505108      -1.36876726       1.33650062       0.00000000
Si      -1.37499004       1.33972871      -1.36018079       0.00000000
Si       1.35677782       1.35664262       1.36382614       0.00000000
Si      -2.70197345       0.03738073       2.63966820       0.00000000
Si       2.72469801      -0.00568521      -2.67781311       0.00000000
Si       0.00566892      -2.76597687      -2.64503415       0.00000000
Si      -0.02397888       2.70425405       2.71038792       0.00000000
Si       0.00216657      -2.70117524       2.71732866       0.00000000
Si      -0.02441871       2.68561829      -2.73287242       0.00000000
