10
Lattice="16.2900001489832 0.0 0.0 0.0 16.2900001489832 0.0 0.0 0.0 29.16277083596932" Properties=species:S:1:pos:R:3:initial_magmoms:R:1 pbc="T T T"
Si      -1.47036799      -1.17045280       1.36633414       0.00000000
Si       1.80006131       0.92196514       1.21305462       0.00000000
Si       0.42839442      -1.75233161      -1.57338981       0.00000000
Si      -0.99453709       1.90265573      -1.35688540       0.00000000
Si      -1.21583674      -0.15284907      -2.51916763       0.00000000
H       -2.38444877      -2.14208615       0.64516798       0.00000000
Si       2.91949383       1.93531718      -0.60022815       0.00000000
Si       1.03557160       3.14180802      -1.33437174       0.00000000
Si       0.51940665       2.58765023       2.43990322       0.00000000
Si       2.17363988      -2.88836364      -0.36704263       0.00000000
