10
Lattice="16.2900001489832 0.0 0.0 0.0 16.2900001489832 0.0 0.0 0.0 29.16277083596932" Properties=species:S:1:pos:R:3:initial_magmoms:R:1 pbc="T T T"
Si       1.37367055       1.36148563      -1.33023063       0.00000000
Si       1.37938834      -1.33530760       1.35116950       0.00000000
Si      -1.34337115       1.37292121       1.35516480       0.00000000
Si      -1.36721971      -1.38290698      -1.34023346       0.00000000
Si      -2.69876432      -0.00387702       2.67906711       0.00000000
Si       0.01427004      -2.69669549       2.68524961       0.00000000
Si       2.69239168      -2.70868493      -0.03251649       0.00000000
Si       0.01637145       2.70819623      -2.69359017       0.00000000
Si      -2.70058880       2.70532919      -0.02566324       0.00000000
Si       2.70027767       0.00109143      -2.70840485       0.00000000
