10
Lattice="16.2900001489832 0.0 0.0 0.0 16.2900001489832 0.0 0.0 0.0 29.16277083596932" Properties=species:S:1:pos:R:3:initial_magmoms:R:1 pbc="T T T"
Si      -1.25890750      -1.06712533       1.65533720       0.00000000
Si       1.34100910       1.41892417       1.31098320       0.00000000
Si      -1.45323091       1.35974260      -1.26187309       0.00000000
Si       1.29704239      -1.51515898      -1.26134816       0.00000000
H       -1.92725363      -3.01482291      -0.61813409       0.00000000
Si      -1.56486628       0.66637504       3.26955489       0.00000000
Si      -2.83610532      -2.33998196       0.40565414       0.00000000
Si      -0.18334395       2.54094680       2.72741898       0.00000000
Si       2.63731844      -0.13805775      -2.67434274       0.00000000
Si      -0.08597862       2.61946460      -2.71365415       0.00000000
