10
Lattice="16.2900001489832 0.0 0.0 0.0 16.2900001489832 0.0 0.0 0.0 29.16277083596932" Properties=species:S:1:pos:R:3:initial_magmoms:R:1 pbc="T T T"
Si      -1.75751183      -0.93299347       1.23313231       0.00000000
Si      -1.25709931       1.18881163      -1.57870998       0.00000000
Si       0.93485053       1.81607438       1.19026304       0.00000000
Si       1.74197117      -1.70251679      -0.20593028       0.00000000
H        2.31441806       0.36667161      -1.61350116       0.00000000
H        0.18430506      -1.71823664      -2.58053864       0.00000000
H        2.71454119       1.01473669      -1.43619152       0.00000000
Si      -0.43965081      -2.26916444       2.59605440       0.00000000
Si       2.38067096       0.53975286       2.49807624       0.00000000
Si       0.89893108      -3.48767274       1.12415687       0.00000000
