10
Lattice="16.2900001489832 0.0 0.0 0.0 16.2900001489832 0.0 0.0 0.0 29.16277083596932" Properties=species:S:1:pos:R:3:initial_magmoms:R:1 pbc="T T T"
H        0.33961392      -0.23988654       0.67570140       0.00000000
Si      -0.42383322       0.74904679      -2.12348716       0.00000000
Si      -0.44771436      -1.60915879      -1.79913882       0.00000000
Si       1.71536960       1.48931326      -1.18260868       0.00000000
Si      -1.16879122       2.26494533       1.27995401       0.00000000
Si      -0.87956227      -2.74436004       0.23327300       0.00000000
Si      -2.82574488       0.73792072       0.54435228       0.00000000
Si       1.65042137      -0.28821897       2.47171980       0.00000000
Si       3.02759427       0.41563935       0.61583023       0.00000000
Si       0.57896290       3.16414845      -0.01913078       0.00000000
