10
Lattice="16.2900001489832 0.0 0.0 0.0 16.2900001489832 0.0 0.0 0.0 29.16277083596932" Properties=species:S:1:pos:R:3:initial_magmoms:R:1 pbc="T T T"
Si      -1.43360146       1.35589816      -1.25709040       0.00000000
Si      -1.37197639      -1.32815629       1.36020996       0.00000000
Si       1.33752304       1.39250179       1.34682425       0.00000000
Si       1.36300060      -1.33897285      -1.39220152       0.00000000
Si      -0.14656113       2.69783579      -2.63089604       0.00000000
Si       2.70961346       0.01697418       2.66390246       0.00000000
Si       0.00324171      -2.68395671       2.69945188       0.00000000
Si      -2.74838367      -2.65147445      -0.01259832       0.00000000
Si      -2.72254772       0.05054787       2.69927691       0.00000000
Si       2.68066613       2.75428065      -0.01049860       0.00000000
