10
Lattice="16.2900001489832 0.0 0.0 0.0 16.2900001489832 0.0 0.0 0.0 29.16277083596932" Properties=species:S:1:pos:R:3:initial_magmoms:R:1 pbc="T T T"
Si      -1.32448127      -1.34291503       1.37989483       0.00000000
Si      -1.36955244       1.35177679      -1.33125133       0.00000000
Si       1.30175020       1.39898521       1.35991833       0.00000000
Si       1.36269109      -1.38033316      -1.33524663       0.00000000
Si       2.66457161      -0.02977812       2.59397014       0.00000000
Si       2.66515805       2.67660992      -0.06188340       0.00000000
Si      -2.63819257       0.05233977       2.73590535       0.00000000
Si      -0.00382815       2.69892722      -2.67892129       0.00000000
Si      -2.71627607      -0.01852173      -2.68250831       0.00000000
Si      -2.68255577       2.72515412       0.05243466       0.00000000
