10
Lattice="16.2900001489832 0.0 0.0 0.0 16.2900001489832 0.0 0.0 0.0 29.16277083596932" Properties=species:S:1:pos:R:3:initial_magmoms:R:1 pbc="T T T"
Si       1.31699764      -1.41685534      -1.30835855       0.00000000
Si      -1.36132273      -1.38207619       1.31115818       0.00000000
Si      -1.31119840       1.36058968      -1.39094752       0.00000000
Si       1.38266100       1.35786925       1.32337738       0.00000000
Si       2.60403797      -0.07491771      -2.68216419       0.00000000
Si      -2.65748546       2.66489741       0.02458422       0.00000000
Si      -2.71568963      -0.07364709      -2.61893639       0.00000000
Si       0.02805138      -2.72220563       2.64800875       0.00000000
Si      -2.68483637      -0.02612916       2.69154877       0.00000000
Si       2.74049931      -0.00475668       2.65159578       0.00000000
