10
Lattice="16.2900001489832 0.0 0.0 0.0 16.2900001489832 0.0 0.0 0.0 29.16277083596932" Properties=species:S:1:pos:R:3:initial_magmoms:R:1 pbc="T T T"
H        0.92813905      -1.10069902       0.48558930       0.00000000
Si       0.42653736       0.32697288      -2.22663588       0.00000000
Si      -2.29361573      -0.40676130       0.63268631       0.00000000
Si       1.05099823       2.01797264       0.84939486       0.00000000
H       -1.72781516       1.07178427      -1.64722995       0.00000000
H       -0.00728163      -2.47643840      -1.40552890       0.00000000
H       -2.12382506      -1.40682070      -1.72754422       0.00000000
Si      -1.45481104      -0.03013650       2.83432970       0.00000000
Si      -3.04854321       1.36909306      -0.84869496       0.00000000
Si      -0.09997173       1.97185565       2.90268723       0.00000000
