10
Lattice="16.2900001489832 0.0 0.0 0.0 16.2900001489832 0.0 0.0 0.0 29.16277083596932" Properties=species:S:1:pos:R:3:initial_magmoms:R:1 pbc="T T T"
Si       1.34724817      -1.28354287       1.41101150       0.00000000
Si      -1.33460713       1.32963380       1.40409993       0.00000000
Si      -1.37336104      -1.40892700      -1.28698224       0.00000000
Si       1.38236941       1.31717195      -1.37648278       0.00000000
Si       2.61438375       0.23701136       2.70000598       0.00000000
Si      -2.67392207       2.67422670       0.01723520       0.00000000
Si      -2.67670766      -0.03990724      -2.68822422       0.00000000
Si       0.03445335      -2.72328566      -2.66226935       0.00000000
Si       0.04510701       2.68764966      -2.72488182       0.00000000
Si       2.77718601      -2.65807679       0.10469435       0.00000000
