10
Lattice="16.2900001489832 0.0 0.0 0.0 16.2900001489832 0.0 0.0 0.0 29.16277083596932" Properties=species:S:1:pos:R:3:initial_magmoms:R:1 pbc="T T T"
Si      -0.93175543      -1.84753037      -1.09342601       0.00000000
Si       1.35627283      -1.24846561       1.44565979       0.00000000
Si      -1.43519788       1.36730116       1.25589764       0.00000000
Si       1.31825197       1.29057526      -1.45748821       0.00000000
H       -1.24108624      -1.54013806      -2.53470264       0.00000000
Si       0.76655854      -3.49433535      -1.01610968       0.00000000
Si       2.65945655      -2.60744258       0.07697513       0.00000000
Si      -0.03176550       2.72546852       2.60319432       0.00000000
Si      -0.05918157      -2.69878061       2.66125740       0.00000000
Si      -0.16281855       2.49453008      -2.85759284       0.00000000
