10
Lattice="16.2900001489832 0.0 0.0 0.0 16.2900001489832 0.0 0.0 0.0 29.16277083596932" Properties=species:S:1:pos:R:3:initial_magmoms:R:1 pbc="T T T"
Si      -1.37132153      -1.37287234       1.31742817       0.00000000
Si      -1.39433930       1.32295978      -1.36391363       0.00000000
Si       1.27523008      -1.35495334      -1.45361831       0.00000000
Si       1.33845157       1.37779192       1.40873681       0.00000000
Si      -2.68012580       0.05704758       2.63581872       0.00000000
Si       2.67397094       2.69812901      -0.00008749       0.00000000
Si       2.71326242      -0.07739379       2.66935590       0.00000000
Si       2.60276735      -2.77374720      -0.16864830       0.00000000
Si      -0.03675024       2.66800880      -2.74217534       0.00000000
Si      -0.03635928      -2.70288569       2.73462218       0.00000000
