10
Lattice="16.2900001489832 0.0 0.0 0.0 16.2900001489832 0.0 0.0 0.0 29.16277083596932" Properties=species:S:1:pos:R:3:initial_magmoms:R:1 pbc="T T T"
Si       1.10267011      -1.59288508      -1.37397479       0.00000000
Si       1.01771776       2.11411622       0.38480276       0.00000000
Si      -1.66245968       0.89107930      -1.46312538       0.00000000
Si      -0.24931845      -0.83735488       2.23264341       0.00000000
H        2.75322180      -0.40190688       1.09722009       0.00000000
Si      -0.98852608       3.25497009       0.94239494       0.00000000
Si      -0.30988467       2.22340583      -2.90446616       0.00000000
Si      -2.95042854       2.33886935      -0.12849117       0.00000000
H        3.53577711      -0.42578802       1.28645731       0.00000000
Si       2.28763730      -0.42997455      -3.06410317       0.00000000
