10
Lattice="16.28999089631971 0.0 0.0 0.0 16.28999089631971 0.0 0.0 0.0 34.40785480372833" Properties=species:S:1:pos:R:3:initial_magmoms:R:1 pbc="T T T"
Si      -1.20804264       1.35029439       1.46106156       0.00000000
Si       0.83155400       1.84091661      -1.28467100       0.00000000
Si      -1.83686922      -0.66094557      -1.46397044       0.00000000
Si       1.50149654      -1.35099103       1.41909427       0.00000000
Si       0.30150998       0.75740355      -3.35574976       0.00000000
Si      -2.40442911      -2.59086653      -0.09357565       0.00000000
Si      -2.66433606       2.57820201       0.13604529       0.00000000
Si      -2.55511161      -0.00471107       2.80379099       0.00000000
Si      -0.94605641       3.60944046      -1.12414860       0.00000000
Si       0.16363794       2.70762606       2.79949001       0.00000000
