10
Lattice="16.28999089631971 0.0 0.0 0.0 16.28999089631971 0.0 0.0 0.0 34.40785480372833" Properties=species:S:1:pos:R:3:initial_magmoms:R:1 pbc="T T T"
Si       0.17293464       2.04415784      -1.10442394       0.00000000
Si       0.08529444      -1.45565811      -1.82523449       0.00000000
Si       1.61774361      -0.88190802       1.44860590       0.00000000
Si      -1.76855643      -0.10544517       1.58506753       0.00000000
Si      -0.30623571      -1.60726914       2.60956198       0.00000000
Si      -1.38116394       1.50072995      -2.80145470       0.00000000
Si      -1.84650408      -0.81966393      -2.97824235       0.00000000
Si       2.58341481       0.87507829       2.62105421       0.00000000
Si      -2.13561900       2.29678316       2.17430238       0.00000000
Si       2.41064307       2.33767106      -1.91634654       0.00000000
