10
Lattice="16.28999089631971 0.0 0.0 0.0 16.28999089631971 0.0 0.0 0.0 34.40785480372833" Properties=species:S:1:pos:R:3:initial_magmoms:R:1 pbc="T T T"
Si      -1.34241003       1.31216095      -1.35253568       0.00000000
Si       1.33270119       1.36621443       1.36233160       0.00000000
Si      -1.38308616      -1.34859619       1.36050798       0.00000000
Si       1.34022717      -1.32621373      -1.51402560       0.00000000
Si      -2.11504473      -0.65473993      -2.49268291       0.00000000
Si      -0.47460915      -2.35650736      -2.71897356       0.00000000
Si       2.69454519      -2.70050329      -0.02628417       0.00000000
Si       2.67682167       2.73348951      -0.01499495       0.00000000
Si       2.69267184       0.00999446       2.72034157       0.00000000
Si      -0.02337615      -2.70506449       2.71910289       0.00000000
