10
Lattice="16.28999089631971 0.0 0.0 0.0 16.28999089631971 0.0 0.0 0.0 34.40785480372833" Properties=species:S:1:pos:R:3:initial_magmoms:R:1 pbc="T T T"
Si       0.88651809       1.70813193      -1.28183094       0.00000000
Si      -0.75355911       0.90031083       2.03257634       0.00000000
Si      -1.80149481      -0.96525678      -1.34345544       0.00000000
Si       1.74785184      -1.74548557       0.28248865       0.00000000
Si       2.18237130       0.30784027      -2.65243419       0.00000000
Si      -1.30753314      -1.25240356       3.04014212       0.00000000
Si      -0.55837233      -2.42011963      -2.67283806       0.00000000
Si       0.81831186      -3.62484658      -1.11736130       0.00000000
Si       1.72364490       3.47937621      -0.00815467       0.00000000
Si      -2.80793988       2.05909998       1.74723184       0.00000000
