10
Lattice="16.28999089631971 0.0 0.0 0.0 16.28999089631971 0.0 0.0 0.0 34.40785480372833" Properties=species:S:1:pos:R:3:initial_magmoms:R:1 pbc="T T T"
Si      -0.88651809      -1.70813193       1.28183094       0.00000000
Si       0.83712681       1.77124428       1.27367627       0.00000000
Si       1.29585321      -1.40029166      -1.37060325       0.00000000
Si      -1.45249785       1.29168297      -1.38539864       0.00000000
Si      -1.12673043       3.25692486       1.14609188       0.00000000
Si       2.62088181       2.69596242       0.03588741       0.00000000
Si      -1.64007720      -0.80782110       3.31440728       0.00000000
Si      -2.68801290      -2.67338872      -0.06162450       0.00000000
Si       2.62560591      -0.05186736      -2.74867302       0.00000000
Si      -0.08970903       2.67375915      -2.74777841       0.00000000
