10
Lattice="16.28999089631971 0.0 0.0 0.0 16.28999089631971 0.0 0.0 0.0 34.40785480372833" Properties=species:S:1:pos:R:3:initial_magmoms:R:1 pbc="T T T"
Si       0.91689894       2.04078677      -0.68241137       0.00000000
Si       0.19536597      -1.64352972      -1.74217389       0.00000000
Si       0.86244147      -0.97882114       2.02817213       0.00000000
Si      -2.20907061       0.96424583      -0.22674789       0.00000000
Si      -0.89233362       3.22735037       0.15290859       0.00000000
Si       1.20832704      -3.19145439       1.22505795       0.00000000
Si      -3.28689846      -0.81461403      -1.40487350       0.00000000
Si      -1.68184476      -1.27666263      -3.13878949       0.00000000
Si      -0.13906773      -3.75332907      -0.66978368       0.00000000
Si       0.45022302       2.47037036      -2.98278419       0.00000000
