10
Lattice="16.28999089631971 0.0 0.0 0.0 16.28999089631971 0.0 0.0 0.0 34.40785480372833" Properties=species:S:1:pos:R:3:initial_magmoms:R:1 pbc="T T T"
Si      -1.41890950      -1.29987979       1.30701750       0.00000000
Si       1.24312248      -1.45486285      -1.32938262       0.00000000
Si      -1.46734944       1.29001748      -1.32078065       0.00000000
Si       1.80149481       0.96525678       1.34345544       0.00000000
Si       2.59869483      -0.09016440      -2.68670444       0.00000000
Si       2.61980667      -2.65958980       0.22609414       0.00000000
Si      -0.11324808       2.62201006      -2.69423976       0.00000000
Si      -0.24760800      -2.27439646       3.00504609       0.00000000
Si       2.68801290       2.67338872       0.06162450       0.00000000
Si      -2.72390319      -2.70738466      -0.02701018       0.00000000
