10
Lattice="16.28999089631971 0.0 0.0 0.0 16.28999089631971 0.0 0.0 0.0 34.40785480372833" Properties=species:S:1:pos:R:3:initial_magmoms:R:1 pbc="T T T"
Si      -0.83712681      -1.77124428      -1.27367627       0.00000000
Si       1.78375500       0.92471814      -1.23778886       0.00000000
Si       1.01063160       0.33943473       2.21689932       0.00000000
Si      -1.96385724       1.48568058      -0.12758440       0.00000000
Si       0.83764809       2.76558588       1.48586963       0.00000000
Si      -0.89911026      -0.98474679       3.20430209       0.00000000
Si       0.44121465       2.26248552      -2.65938458       0.00000000
Si      -2.28962466      -0.47956131      -2.65907491       0.00000000
Si      -1.77235200       2.66848119       1.87478183       0.00000000
Si       3.05224101       2.31974487       0.37136418       0.00000000
