10
Lattice="16.28999089631971 0.0 0.0 0.0 16.28999089631971 0.0 0.0 0.0 34.40785480372833" Properties=species:S:1:pos:R:3:initial_magmoms:R:1 pbc="T T T"
Si      -1.01063160      -0.33943473      -2.21689932       0.00000000
Si      -1.90974186      -1.32418152       0.98740276       0.00000000
Si      -0.17298351       2.42615115      -0.73102969       0.00000000
Si       1.61187921       0.27751644       2.47299713       0.00000000
Si       2.04160941       1.98031014      -1.84553514       0.00000000
Si       0.77312340       0.58528341      -3.45468818       0.00000000
Si      -3.34402749       0.62643195       1.22313111       0.00000000
Si      -2.78298360       2.32904646      -0.34211749       0.00000000
Si      -2.97448884       1.14624585      -2.34448372       0.00000000
Si      -1.44306594      -1.75376511       3.28777559       0.00000000
