10
Lattice="16.28999089631971 0.0 0.0 0.0 16.28999089631971 0.0 0.0 0.0 34.40785480372833" Properties=species:S:1:pos:R:3:initial_magmoms:R:1 pbc="T T T"
Si      -1.16401824       1.49266899      -1.36492595       0.00000000
Si       1.89053595       0.74438784       1.22134190       0.00000000
Si       1.52360370      -1.25455806      -1.38574272       0.00000000
Si      -1.88214660      -0.85261860       1.27009785       0.00000000
Si       1.36311462      -0.73867005       3.36219982       0.00000000
Si      -2.51491536       0.10370214      -2.73559802       0.00000000
Si       0.20180052      -2.61107523      -2.74609243       0.00000000
Si      -2.63075355      -2.74378986      -0.00306230       0.00000000
Si       2.79813330      -2.60626968       0.02862735       0.00000000
Si      -2.49199533       2.96096814       0.17345009       0.00000000
