10
Lattice="16.28999089631971 0.0 0.0 0.0 16.28999089631971 0.0 0.0 0.0 34.40785480372833" Properties=species:S:1:pos:R:3:initial_magmoms:R:1 pbc="T T T"
Si       1.26690588      -0.50758011      -1.88930196       0.00000000
Si      -2.24507151       0.39229578      -0.61259779       0.00000000
Si       1.06007175       1.91536191       0.98234480       0.00000000
Si       0.02296890      -1.77271038       1.62167751       0.00000000
Si       3.43479537      -0.33181101      -1.02958681       0.00000000
Si      -2.23581879       2.68496667      -1.08746086       0.00000000
Si       2.15950014       0.81761139       2.90963305       0.00000000
Si      -1.98092916      -1.38846186       2.82609073       0.00000000
Si       0.68484789      -2.71800279      -2.46941871       0.00000000
Si      -2.48095071      -0.56571912      -2.75834163       0.00000000
