10
Lattice="16.28999089631971 0.0 0.0 0.0 16.28999089631971 0.0 0.0 0.0 34.40785480372833" Properties=species:S:1:pos:R:3:initial_magmoms:R:1 pbc="T T T"
Si       0.16596252       1.36159543      -1.85595079       0.00000000
Si      -2.01665313      -0.66248172       1.02010848       0.00000000
Si       1.64043558      -1.70176743      -0.22629065       0.00000000
Si       0.77263470       1.96690088       1.14014723       0.00000000
Si      -0.79970868      -0.39539088      -3.02839909       0.00000000
Si      -0.62947818      -2.04801138       2.49298914       0.00000000
Si       2.11504473       0.65473993       2.49268291       0.00000000
Si      -2.72368800      -1.12075200      -1.86744302       0.00000000
Si       0.67484583      -3.40662996       1.05758209       0.00000000
Si       3.45527190      -0.67147380       0.97865731       0.00000000
