10
Lattice="16.28999089631971 0.0 0.0 0.0 16.28999089631971 0.0 0.0 0.0 34.40785480372833" Properties=species:S:1:pos:R:3:initial_magmoms:R:1 pbc="T T T"
Si       1.35467640      -1.35651717       1.35818201       0.00000000
Si       1.35694071       1.35742206      -1.35704655       0.00000000
Si      -1.35835794      -1.35769005      -1.35756267       0.00000000
Si      -1.35809730       1.35541315       1.36010885       0.00000000
Si      -0.00900837      -2.68231140       2.73453138       0.00000000
Si       2.71445157      -2.71388142      -0.00051612       0.00000000
Si       2.71430496       0.00016290      -2.71495330       0.00000000
Si      -0.00094482      -2.71490769      -2.71457481       0.00000000
Si       2.71396287       2.71613011      -0.00027526       0.00000000
Si      -2.71585251      -0.00022806      -2.71454041       0.00000000
