10
Lattice="16.28999089631971 0.0 0.0 0.0 16.28999089631971 0.0 0.0 0.0 34.40785480372833" Properties=species:S:1:pos:R:3:initial_magmoms:R:1 pbc="T T T"
Si      -0.96558975      -1.70486253       1.28387274       0.00000000
Si      -1.64043558       1.70176743       0.22629065       0.00000000
Si       0.42272550      -1.13472882      -2.07885493       0.00000000
Si       1.81483632       1.03029363       1.20494796       0.00000000
Si       2.73531906      -1.10521134      -1.95791126       0.00000000
Si      -2.26991376      -0.34624395       2.71927979       0.00000000
Si       0.47460915       2.35650736       2.71897356       0.00000000
Si      -1.47447306       3.06336286      -1.62966014       0.00000000
Si      -2.98243836      -2.47700853       0.06517612       0.00000000
Si      -2.44014426       1.30637655      -2.80210845       0.00000000
