10
Lattice="16.28999089631971 0.0 0.0 0.0 16.28999089631971 0.0 0.0 0.0 34.40785480372833" Properties=species:S:1:pos:R:3:initial_magmoms:R:1 pbc="T T T"
Si       1.49203368       1.67361831      -0.85104436       0.00000000
Si      -1.06007175      -1.91536191      -0.98234480       0.00000000
Si       1.09942839      -1.09775052       1.92728825       0.00000000
Si      -1.76344137       1.34335485       1.20403474       0.00000000
Si       1.20920670       3.28488569       1.06272160       0.00000000
Si       0.20683413      -2.42294202      -2.87164676       0.00000000
Si       0.37732527       2.66902758      -2.70139660       0.00000000
Si       2.37472362      -2.24717292      -2.01193162       0.00000000
Si      -1.03710285      -3.68807229       0.63933271       0.00000000
Si      -1.34423451       1.22697909      -3.49429165       0.00000000
