10
Lattice="16.28999089631971 0.0 0.0 0.0 16.28999089631971 0.0 0.0 0.0 34.40785480372833" Properties=species:S:1:pos:R:3:initial_magmoms:R:1 pbc="T T T"
Si       1.31458671      -1.44401402      -1.31240578       0.00000000
Si      -1.34412048      -1.36727509       1.37732655       0.00000000
Si       1.37189493       1.34917038       1.37570938       0.00000000
Si      -1.40858001       1.33506324      -1.54249811       0.00000000
Si      -2.70295083       2.70601335      -0.01967098       0.00000000
Si      -2.67682167      -2.73348951       0.01499495       0.00000000
Si       2.71370223       2.70801702       0.00260468       0.00000000
Si      -2.69904123      -0.01164735       2.73409784       0.00000000
Si       0.01539405       2.70485676       2.73406343       0.00000000
Si       0.01585017      -2.72349506       2.73533653       0.00000000
