10
Lattice="16.28999089631971 0.0 0.0 0.0 16.28999089631971 0.0 0.0 0.0 34.40785480372833" Properties=species:S:1:pos:R:3:initial_magmoms:R:1 pbc="T T T"
Si       1.35690813      -1.35654323      -1.35711537       0.00000000
Si      -1.35824391      -1.35561145       1.35711537       0.00000000
Si       1.35664749       1.35896067       1.35866372       0.00000000
Si      -1.35819504       1.35886293      -1.35732181       0.00000000
Si       0.00060273      -2.71256447      -2.71426514       0.00000000
Si       2.71438641      -2.71363266      -0.00017204       0.00000000
Si      -2.71526607      -2.71431949       0.00034408       0.00000000
Si       2.71479366      -0.00017919      -2.71481567       0.00000000
Si      -0.00039096      -2.71243705       2.71725863       0.00000000
Si      -2.71428867      -0.00071676      -2.71550383       0.00000000
