10
Lattice="16.28999089631971 0.0 0.0 0.0 16.28999089631971 0.0 0.0 0.0 34.40785480372833" Properties=species:S:1:pos:R:3:initial_magmoms:R:1 pbc="T T T"
Si       1.34983827       1.36005536      -1.37590207       0.00000000
Si      -1.36363590      -1.35014996      -1.37669345       0.00000000
Si      -1.18372914       1.51740047       1.37542036       0.00000000
Si       1.41099093      -1.34269089       1.46615392       0.00000000
Si       0.65228418       2.19700298       2.71811882       0.00000000
Si       2.58452253       0.54754274       2.50306961       0.00000000
Si      -0.26953434      -2.41584351       2.86462755       0.00000000
Si       2.70223407      -2.70385071      -0.01273091       0.00000000
Si      -2.72091870       2.72471753       0.00547085       0.00000000
Si      -0.00501732      -2.70873771      -2.73690552       0.00000000
