10
Lattice="16.28999089631971 0.0 0.0 0.0 16.28999089631971 0.0 0.0 0.0 34.40785480372833" Properties=species:S:1:pos:R:3:initial_magmoms:R:1 pbc="T T T"
Si      -1.04154531       0.73893069       1.96627237       0.00000000
Si      -1.47564123      -1.28759255      -1.30763684       0.00000000
Si       0.21298735       1.86984765      -1.43701045       0.00000000
Si       2.10658582      -1.07619233       0.19361311       0.00000000
Si       1.99527625       0.85866219      -2.69176239       0.00000000
Si       1.64124568      -3.39658622       0.01682545       0.00000000
Si      -2.26942035       0.09215253      -3.01997910       0.00000000
Si       0.75154778       1.35363384       3.51225256       0.00000000
Si      -2.50715661       2.56544694       1.41598724       0.00000000
Si       3.54854404      -0.43792407      -1.55592406       0.00000000
