10
Lattice="16.28999089631971 0.0 0.0 0.0 16.28999089631971 0.0 0.0 0.0 34.40785480372833" Properties=species:S:1:pos:R:3:initial_magmoms:R:1 pbc="T T T"
Si       1.34530965       1.81610694       0.72924048       0.00000000
Si      -1.64403567       0.20973375       1.73711593       0.00000000
Si      -0.64505142       0.24938361      -2.30309105       0.00000000
Si       1.54864143      -1.87933006       0.06957272       0.00000000
Si       0.49576986      -1.61696332      -3.06605125       0.00000000
Si       0.77460579       1.06850997       3.33997233       0.00000000
Si       3.29637924      -0.87910614       1.51862593       0.00000000
Si       0.52896888       2.10272949      -3.04753981       0.00000000
Si       0.17225046       3.76005780       0.00319993       0.00000000
Si      -3.53115072       1.14564312       0.66503539       0.00000000
