10
Lattice="16.28999089631971 0.0 0.0 0.0 16.28999089631971 0.0 0.0 0.0 34.40785480372833" Properties=species:S:1:pos:R:3:initial_magmoms:R:1 pbc="T T T"
Si       2.36923389      -0.08154774      -0.02009420       0.00000000
Si      -0.96376527      -1.40066307       1.67731504       0.00000000
Si      -0.65809971       2.22891183       0.55331302       0.00000000
Si      -1.61187921      -0.27751644      -2.47299713       0.00000000
Si       3.01096215       2.01179871      -0.91535267       0.00000000
Si       2.96033283      -0.43554573       2.24886424       0.00000000
Si      -3.05494515      -2.03128155       0.81477846       0.00000000
Si      -2.62063746       2.19362769       1.81432720       0.00000000
Si      -0.75329847      -0.35831484       3.85048196       0.00000000
Si       0.84403377       3.47501538       1.92893983       0.00000000
