10
Lattice="16.28999089631971 0.0 0.0 0.0 16.28999089631971 0.0 0.0 0.0 34.40785480372833" Properties=species:S:1:pos:R:3:initial_magmoms:R:1 pbc="T T T"
Si      -1.23953868       0.91909809      -1.76206164       0.00000000
Si      -0.64172826      -2.09334645       0.89525847       0.00000000
Si      -0.02015073       1.60695963       1.78315366       0.00000000
Si       2.37143304      -0.81871911      -1.27938798       0.00000000
Si       1.07523774       1.68332715      -2.39024619       0.00000000
Si      -3.01096215      -2.01179871       0.91535267       0.00000000
Si      -2.16692838       1.46321667       2.84429250       0.00000000
Si      -0.01497051       3.79620531       0.78680486       0.00000000
Si       1.73786607       0.94843638       3.33938740       0.00000000
Si      -3.66906186       0.21711312       1.46866570       0.00000000
