10
Lattice="16.28999089631971 0.0 0.0 0.0 16.28999089631971 0.0 0.0 0.0 34.40785480372833" Properties=species:S:1:pos:R:3:initial_magmoms:R:1 pbc="T T T"
Si       0.60058298      -1.63377297       1.65711762       0.00000000
Si       2.25237269       0.28685061      -0.87131059       0.00000000
Si      -0.75411590       2.20534020       0.72665989       0.00000000
Si      -1.79309310      -0.61470315      -1.54598019       0.00000000
Si       2.90913662      -1.88639829      -1.62160870       0.00000000
Si      -0.75154778      -1.35363384      -3.51225256       0.00000000
Si      -2.42224548       1.82465919       2.40683079       0.00000000
Si      -2.28547464       3.02606298      -0.90609695       0.00000000
Si      -3.46109136      -1.79727570      -0.32150717       0.00000000
Si       1.13062700      -0.55025991       3.72819638       0.00000000
