10
Lattice="16.28999089631971 0.0 0.0 0.0 16.28999089631971 0.0 0.0 0.0 34.40785480372833" Properties=species:S:1:pos:R:3:initial_magmoms:R:1 pbc="T T T"
Si       1.35912357       1.35330804       1.37449134       0.00000000
Si      -1.35454608      -1.36671471       1.37992779       0.00000000
Si       1.41564987      -1.19003337      -1.50595007       0.00000000
Si      -1.41292944       1.35454608      -1.41843364       0.00000000
Si      -2.68690518      -2.70671382       0.01245221       0.00000000
Si       2.71899648      -2.71034649      -0.01455109       0.00000000
Si      -2.71725345       2.71316466       0.01697340       0.00000000
Si       2.72181465       2.71541268      -0.00961700       0.00000000
Si       0.00389331       2.71085148       2.73577006       0.00000000
Si      -2.71077003      -0.00447975       2.73666467       0.00000000
