10
Lattice="16.28999089631971 0.0 0.0 0.0 16.28999089631971 0.0 0.0 0.0 34.40785480372833" Properties=species:S:1:pos:R:3:initial_magmoms:R:1 pbc="T T T"
Si      -1.35739683      -1.35562122      -1.35725300       0.00000000
Si       1.35703845      -1.35736425       1.35721859       0.00000000
Si       1.35692442       1.35741312      -1.35783793       0.00000000
Si      -1.35811359       1.35799956       1.35732181       0.00000000
Si      -0.00114030      -2.71386513       2.71460922       0.00000000
Si      -2.71399545      -0.00125433       2.71471245       0.00000000
Si       2.71446786      -2.71441899      -0.00044730       0.00000000
Si      -2.71494027      -2.71430496      -0.00034408       0.00000000
Si       2.71464705      -0.00061902       2.71509093       0.00000000
Si      -2.71593396      -0.00320913      -2.71395547       0.00000000
