10
Lattice="16.28999089631971 0.0 0.0 0.0 16.28999089631971 0.0 0.0 0.0 34.40785480372833" Properties=species:S:1:pos:R:3:initial_magmoms:R:1 pbc="T T T"
Si      -1.33214733      -1.38341196      -1.34015229       0.00000000
Si       1.35819504      -1.35405738       1.36533885       0.00000000
Si      -1.35702216       1.36146933       1.36540767       0.00000000
Si       1.38289068       1.37463165      -1.35938973       0.00000000
Si      -2.77784736      -0.12673620      -2.60374705       0.00000000
Si       2.71249677      -2.70702333       0.00037849       0.00000000
Si      -2.70892274      -2.71394658       0.00467947       0.00000000
Si       2.71524978       2.71463076       0.00808585       0.00000000
Si      -2.71219540       2.71793763       0.00464506       0.00000000
Si       0.00055386      -2.71147050       2.72107790       0.00000000
