10
Lattice="16.28999089631971 0.0 0.0 0.0 16.28999089631971 0.0 0.0 0.0 34.40785480372833" Properties=species:S:1:pos:R:3:initial_magmoms:R:1 pbc="T T T"
Si      -1.44570003       1.25667576      -1.26359477       0.00000000
Si      -1.37677541      -1.33053462       1.34483176       0.00000000
Si       1.33214733       1.38341196       1.34015229       0.00000000
Si       1.52489061      -1.45036386      -2.10499115       0.00000000
Si       0.29753685       2.41961886      -2.40051798       0.00000000
Si      -0.70885935      -2.19724407      -2.73932925       0.00000000
Si      -2.48646976      -0.42872022      -2.57880685       0.00000000
Si       2.12457438       0.81715527      -2.83663472       0.00000000
Si       2.68108965      -2.68121997      -0.05387929       0.00000000
Si      -0.02723688      -2.68604181       2.70466535       0.00000000
