10
Lattice="16.28999089631971 0.0 0.0 0.0 16.28999089631971 0.0 0.0 0.0 34.40785480372833" Properties=species:S:1:pos:R:3:initial_magmoms:R:1 pbc="T T T"
Si      -1.81439649       0.50477823      -1.48088049       0.00000000
Si       1.21508739      -2.03335038      -0.48257043       0.00000000
Si      -0.13023855       1.59065334       1.88076880       0.00000000
Si       1.75852179       1.06955253      -1.37445694       0.00000000
Si      -1.53489267      -1.86916347       1.33007078       0.00000000
Si      -0.41495517      -3.58490772       0.15263333       0.00000000
Si      -2.06223255       2.81171397      -1.29521560       0.00000000
Si       1.99215297       3.16165509      -0.25417097       0.00000000
Si      -0.94811058       0.53950851      -3.67383193       0.00000000
Si       0.77045184       0.64993842       3.84218966       0.00000000
