10
Lattice="16.28999089631971 0.0 0.0 0.0 16.28999089631971 0.0 0.0 0.0 34.40785480372833" Properties=species:S:1:pos:R:3:initial_magmoms:R:1 pbc="T T T"
Si      -1.45629342       1.22790762      -1.32501626       0.00000000
Si       1.20804264      -1.35029439      -1.46106156       0.00000000
Si      -1.34706897      -1.35500546       1.34272944       0.00000000
Si       1.37168057       1.35733167       1.33842845       0.00000000
Si       0.26198622       2.25914607      -2.58521015       0.00000000
Si       2.03959664       0.49062222      -2.74573256       0.00000000
Si      -0.62882658      -2.01123996      -2.92503199       0.00000000
Si      -2.46705534      -0.37897056      -2.65672486       0.00000000
Si      -2.70545949       0.00092853       2.69836526       0.00000000
Si       0.00733138      -2.71270554       2.69788355       0.00000000
