10
Lattice="16.28999089631971 0.0 0.0 0.0 16.28999089631971 0.0 0.0 0.0 34.40785480372833" Properties=species:S:1:pos:R:3:initial_magmoms:R:1 pbc="T T T"
Si       1.34706897       1.35500546      -1.34272944       0.00000000
Si       1.35440035      -1.35770008       1.35515412       0.00000000
Si      -1.35839052       1.35593399       1.35563583       0.00000000
Si      -1.34516304      -1.37875416      -1.36805019       0.00000000
Si      -0.10922445       2.58291308      -2.66774570       0.00000000
Si       2.55511161       0.00471107      -2.80379099       0.00000000
Si       2.71349113      -0.00064671       2.71288883       0.00000000
Si      -0.00171045       2.71408016       2.71319850       0.00000000
Si      -0.00123804      -2.71567725       2.71288883       0.00000000
Si      -2.71627605      -0.00043006       2.71333613       0.00000000
