10
Lattice="16.28999089631971 0.0 0.0 0.0 16.28999089631971 0.0 0.0 0.0 34.40785480372833" Properties=species:S:1:pos:R:3:initial_magmoms:R:1 pbc="T T T"
Si       1.05256206       1.30600514       1.57543333       0.00000000
Si      -2.21618934      -0.03133219      -0.67728459       0.00000000
Si       1.26620541      -0.70258281      -1.88303972       0.00000000
Si      -0.32869962      -1.76808795       1.59848660       0.00000000
Si       0.73244727      -3.24355470       0.15504188       0.00000000
Si       0.42728670      -2.86810278      -2.13662575       0.00000000
Si      -3.26881656       1.04326373       1.10776150       0.00000000
Si      -0.41964669       1.10739746       3.42798767       0.00000000
Si      -2.23458075       1.78809140      -2.26940574       0.00000000
Si      -2.90405088      -2.33118438       0.09376146       0.00000000
