10
Lattice="16.28999089631971 0.0 0.0 0.0 16.28999089631971 0.0 0.0 0.0 34.40785480372833" Properties=species:S:1:pos:R:3:initial_magmoms:R:1 pbc="T T T"
Si       1.26550494      -1.49214771      -1.29120020       0.00000000
Si      -1.34180730      -1.35884664       1.37310471       0.00000000
Si       1.37451762       1.35624024       1.37165958       0.00000000
Si      -1.39413078       1.29253005      -1.51059513       0.00000000
Si       0.13180239       2.26522224      -3.06267037       0.00000000
Si      -2.69879688       2.72222190      -0.01882799       0.00000000
Si      -2.71370223      -2.70801702      -0.00260468       0.00000000
Si      -2.69830818      -0.00316026       2.73145876       0.00000000
Si       2.71104696       2.72407896      -0.00947937       0.00000000
Si       2.72179836      -2.72005533       0.03381606       0.00000000
