10
Lattice="16.28999089631971 0.0 0.0 0.0 16.28999089631971 0.0 0.0 0.0 34.40785480372833" Properties=species:S:1:pos:R:3:initial_magmoms:R:1 pbc="T T T"
Si      -1.35667030      -1.35848826       1.35604872       0.00000000
Si       1.35839052       1.35697329       1.35611754       0.00000000
Si      -1.35517325       1.35646830      -1.36076260       0.00000000
Si       1.35702216      -1.36146933      -1.36540767       0.00000000
Si      -0.00982287       2.71096551      -2.71329484       0.00000000
Si      -2.71247138       2.71508688      -0.00075697       0.00000000
Si       0.00060273       2.71453302       2.71398988       0.00000000
Si       2.71539639      -0.00034209       2.71385225       0.00000000
Si       0.00042354      -2.71565703       2.71364580       0.00000000
Si      -2.71557530      -0.00052128       2.71392106       0.00000000
