10
Lattice="16.28999089631971 0.0 0.0 0.0 16.28999089631971 0.0 0.0 0.0 34.40785480372833" Properties=species:S:1:pos:R:3:initial_magmoms:R:1 pbc="T T T"
Si       1.35626399      -1.35715248       1.35811320       0.00000000
Si      -1.35835794      -1.35827649      -1.35659925       0.00000000
Si      -1.35757602       1.35759231       1.35828524       0.00000000
Si       1.35936792       1.35845568      -1.35656484       0.00000000
Si      -2.71495656       2.71500543       0.00075697       0.00000000
Si      -2.71547784      -2.71467963       0.00037849       0.00000000
Si       0.00097740      -2.71308321      -2.71712100       0.00000000
Si       0.00141723      -2.71629234       2.71392106       0.00000000
Si       2.71539706       2.71487511       0.00072257       0.00000000
Si       2.71516900      -2.71511946       0.00024086       0.00000000
