10
Lattice="16.28999089631971 0.0 0.0 0.0 16.28999089631971 0.0 0.0 0.0 34.40785480372833" Properties=species:S:1:pos:R:3:initial_magmoms:R:1 pbc="T T T"
Si      -1.35738054       1.35741312      -1.35752826       0.00000000
Si       1.35772263       1.35827649       1.35642721       0.00000000
Si       1.35757602      -1.35759231      -1.35828524       0.00000000
Si      -1.35772263      -1.35847197       1.35763149       0.00000000
Si       2.71384001      -2.71474479      -0.00017204       0.00000000
Si       2.71489328       2.71495656      -0.00017204       0.00000000
Si      -2.71498914       2.71518462      -0.00013763       0.00000000
Si       2.71344159      -0.00096111       2.71684573       0.00000000
Si      -0.00198738       2.71528236      -2.71505652       0.00000000
Si      -2.71533123      -2.71521720      -0.00024086       0.00000000
