10
Lattice="16.28999089631971 0.0 0.0 0.0 16.28999089631971 0.0 0.0 0.0 34.40785480372833" Properties=species:S:1:pos:R:3:initial_magmoms:R:1 pbc="T T T"
Si       1.35602914       1.35641943       1.35728741       0.00000000
Si      -1.35936792      -1.35845568       1.35656484       0.00000000
Si      -1.35879777       1.35374787      -1.36320556       0.00000000
Si       1.35729813      -1.35861858      -1.36000563       0.00000000
Si       2.70264851      -0.00412137      -2.71253787       0.00000000
Si       2.71247138      -2.71508688       0.00075697       0.00000000
Si       2.71307411      -0.00055386       2.71474685       0.00000000
Si       2.71414925       2.71388142       0.00027526       0.00000000
Si      -0.00205066       2.71409319       2.71467804       0.00000000
Si      -0.00310393      -2.71560816       2.71467804       0.00000000
