10
Lattice="16.28999089631971 0.0 0.0 0.0 16.28999089631971 0.0 0.0 0.0 34.40785480372833" Properties=species:S:1:pos:R:3:initial_magmoms:R:1 pbc="T T T"
Si       1.39929471      -1.34314308       1.26861832       0.00000000
Si       1.36293543       1.32836805      -1.36354964       0.00000000
Si      -1.34770428      -1.38564369      -1.35979918       0.00000000
Si      -1.42579854       1.28428731       1.50458752       0.00000000
Si      -0.39105774      -2.21439744       2.44588373       0.00000000
Si      -2.37493539      -0.74492541       2.59851705       0.00000000
Si      -2.71437012       2.67799455       0.02549623       0.00000000
Si       2.71720458       2.69127090       0.00154835       0.00000000
Si       0.00995319       2.68638390      -2.72262626       0.00000000
Si      -2.70602964      -0.02821428      -2.72279830       0.00000000
