10
Lattice="16.28999089631971 0.0 0.0 0.0 16.28999089631971 0.0 0.0 0.0 34.40785480372833" Properties=species:S:1:pos:R:3:initial_magmoms:R:1 pbc="T T T"
Si      -1.35571896       1.35923760      -1.36041852       0.00000000
Si       1.35824132      -1.35861858      -1.35869813       0.00000000
Si      -1.35084825      -1.36941885       1.36303352       0.00000000
Si       1.37912836       1.36184400       1.35673688       0.00000000
Si      -2.68029144       0.04453686       2.63137657       0.00000000
Si      -2.71213839      -2.71518462       0.00003441       0.00000000
Si       2.71900367      -2.71072116      -0.00075697       0.00000000
Si      -2.71344159       0.00096111      -2.71684573       0.00000000
Si       0.00039842      -2.71378368      -2.71701777       0.00000000
Si       2.71898738       2.71205694      -0.00416335       0.00000000
