10
Lattice="16.28999089631971 0.0 0.0 0.0 16.28999089631971 0.0 0.0 0.0 34.40785480372833" Properties=species:S:1:pos:R:3:initial_magmoms:R:1 pbc="T T T"
Si      -1.30241808       1.15968510      -1.67607636       0.00000000
Si      -1.73281617      -1.17887472       1.25980990       0.00000000
Si       0.89283439       1.85696226       1.35577346       0.00000000
Si       1.39192578      -1.53015228      -1.64648559       0.00000000
Si       1.99403351      -0.93717999       2.75039341       0.00000000
Si      -2.63186127       2.57364081      -0.40773331       0.00000000
Si       2.74135355       2.59263495      -0.15586767       0.00000000
Si      -0.88671357       3.58221987       0.86797303       0.00000000
Si      -2.63893113      -2.87318133      -0.21460191       0.00000000
Si       0.04843017       2.52910395      -3.03910988       0.00000000
