10
Lattice="16.28999089631971 0.0 0.0 0.0 16.28999089631971 0.0 0.0 0.0 34.40785480372833" Properties=species:S:1:pos:R:3:initial_magmoms:R:1 pbc="T T T"
Si      -1.83814731       0.28818639       1.41736356       0.00000000
Si       0.64646865       1.89820854      -1.25568095       0.00000000
Si       1.51210296       0.50085234       1.88954281       0.00000000
Si      -0.74793906      -1.82469177      -1.75968749       0.00000000
Si      -1.84332753      -1.90105929       2.41371236       0.00000000
Si       1.53992628       1.24278039      -3.25949231       0.00000000
Si      -0.90849330       3.65109399      -0.83900160       0.00000000
Si       0.43188048       1.87388757       3.43421550       0.00000000
Si      -1.99557387      -0.63705303      -3.35793324       0.00000000
Si       3.62157881       1.30746798       1.08364158       0.00000000
