10
Lattice="16.28999089631971 0.0 0.0 0.0 16.28999089631971 0.0 0.0 0.0 34.40785480372833" Properties=species:S:1:pos:R:3:initial_magmoms:R:1 pbc="T T T"
Si       0.07040538      -2.34382149      -0.26160307       0.00000000
Si       2.07663291       0.92830194      -0.62763403       0.00000000
Si      -0.42640704       0.43039809       2.29128915       0.00000000
Si      -1.64595789       0.94837122      -1.45342301       0.00000000
Si       1.67694147       1.49693697      -2.81456410       0.00000000
Si       2.31637284       2.61332325       0.98822855       0.00000000
Si       1.70901648       0.03425787       3.30195163       0.00000000
Si      -2.05644960      -1.12115925       2.92649291       0.00000000
Si       0.55174230      -3.24102582       1.88754715       0.00000000
Si       0.11702736       3.53330100       1.39940264       0.00000000
