10
Lattice="16.28999089631971 0.0 0.0 0.0 16.28999089631971 0.0 0.0 0.0 34.40785480372833" Properties=species:S:1:pos:R:3:initial_magmoms:R:1 pbc="T T T"
Si      -1.27105983       1.97337060      -0.03007248       0.00000000
Si       1.52596575      -1.46567646      -1.01830103       0.00000000
Si      -1.60943571      -1.53147177       0.89752939       0.00000000
Si       1.99619289       0.91424367       1.04032207       0.00000000
Si      -2.53910601       0.63320859       1.51797218       0.00000000
Si       0.81239859       1.51518177       3.12072536       0.00000000
Si      -0.30063195       3.17145123       1.75270270       0.00000000
Si       3.48416533      -0.92269818       0.75783343       0.00000000
Si       0.40368249      -3.58300179      -0.82558253       0.00000000
Si       1.30899924      -1.10605842      -3.34417009       0.00000000
