10
Lattice="16.28999089631971 0.0 0.0 0.0 16.28999089631971 0.0 0.0 0.0 34.40785480372833" Properties=species:S:1:pos:R:3:initial_magmoms:R:1 pbc="T T T"
Si      -1.46569275      -1.16783010      -1.45675511       0.00000000
Si       1.20405906      -1.52520012       1.42550102       0.00000000
Si      -1.52102988       1.20098025       1.43983534       0.00000000
Si       1.39663944       1.32173802      -1.60801212       0.00000000
Si      -1.95486516       0.43976484      -3.21076530       0.00000000
Si       2.70036072       2.68177383      -0.06709191       0.00000000
Si       2.54905920      -0.16547382       2.82273941       0.00000000
Si      -0.16532721       2.55262671       2.82862315       0.00000000
Si      -2.87534790       2.57526981      -0.04790608       0.00000000
Si      -2.82719466      -2.70446580      -0.05649773       0.00000000
