10
Lattice="16.28999089631971 0.0 0.0 0.0 16.28999089631971 0.0 0.0 0.0 34.40785480372833" Properties=species:S:1:pos:R:3:initial_magmoms:R:1 pbc="T T T"
Si      -1.11303054       1.65626946      -1.36802266       0.00000000
Si       1.30372128       1.36003581       1.54092021       0.00000000
Si       1.18379430      -0.60093810      -2.08040329       0.00000000
Si      -1.39663944      -1.32173802       1.60801212       0.00000000
Si      -0.81239859      -1.51518177      -3.12072536       0.00000000
Si       0.80135397       2.93633507      -2.15651350       0.00000000
Si       1.87128117       3.28995676       0.17052542       0.00000000
Si      -2.86233219      -2.48956812       0.15125701       0.00000000
Si      -2.08345842       0.45818883      -3.15079784       0.00000000
Si      -3.35150460      -0.88197318      -1.60275318       0.00000000
