10
Lattice="16.28999089631971 0.0 0.0 0.0 16.28999089631971 0.0 0.0 0.0 34.40785480372833" Properties=species:S:1:pos:R:3:initial_magmoms:R:1 pbc="T T T"
Si      -1.35704497       1.35697329      -1.35745945       0.00000000
Si       1.35604476       1.35845568       1.35739063       0.00000000
Si       1.35778779      -1.35755973      -1.35787234       0.00000000
Si      -1.35833513      -1.35988920       1.35825083       0.00000000
Si       0.00241092       2.71078632       2.71278560       0.00000000
Si      -2.71307411       0.00055386      -2.71474685       0.00000000
Si       0.00242721      -2.71199178       2.71619198       0.00000000
Si      -0.00060273      -2.71453302      -2.71398988       0.00000000
Si       0.00107514       2.71443528      -2.71447159       0.00000000
Si       2.71498914       2.71438641      -0.00013763       0.00000000
