10
Lattice="16.28999089631971 0.0 0.0 0.0 16.28999089631971 0.0 0.0 0.0 34.40785480372833" Properties=species:S:1:pos:R:3:initial_magmoms:R:1 pbc="T T T"
Si      -0.89283439      -1.85696226      -1.35577346       0.00000000
Si       1.84851915       0.73567269      -1.51164113       0.00000000
Si      -1.77954796       1.72525761      -0.48780043       0.00000000
Si       0.67693258      -0.24114087       2.49113008       0.00000000
Si       1.10119911      -2.79414225       1.39461995       0.00000000
Si       2.84005887      -0.86214825       1.73746001       0.00000000
Si       0.53472414       2.03398569      -3.03814646       0.00000000
Si      -2.19525247      -0.69727716      -3.03184982       0.00000000
Si      -2.67300559       2.38068576       1.51601093       0.00000000
Si      -0.73517601       3.48368166      -1.73460415       0.00000000
