10
Lattice="16.28999089631971 0.0 0.0 0.0 16.28999089631971 0.0 0.0 0.0 34.40785480372833" Properties=species:S:1:pos:R:3:initial_magmoms:R:1 pbc="T T T"
Si       1.35479695       1.35747665      -1.35735622       0.00000000
Si      -1.35750607       1.35755810       1.35718418       0.00000000
Si       1.35872284      -1.35733822       1.35687451       0.00000000
Si      -1.35909078      -1.35705337      -1.35773471       0.00000000
Si      -2.71349113       0.00064671      -2.71288883       0.00000000
Si       2.71405084       0.00256242       2.71330172       0.00000000
Si      -2.71293727       0.00304949       2.71509093       0.00000000
Si      -2.71472917      -2.71503054       0.00000000       0.00000000
Si      -2.71520158       2.71472687       0.00030967       0.00000000
Si       0.00525841       2.71298384      -2.71718981       0.00000000
