10
Lattice="16.28999089631971 0.0 0.0 0.0 16.28999089631971 0.0 0.0 0.0 34.40785480372833" Properties=species:S:1:pos:R:3:initial_magmoms:R:1 pbc="T T T"
Si       0.23363607      -1.13500575       2.00773386       0.00000000
Si      -1.83285373       1.41418377       0.47114702       0.00000000
Si       2.18724853       0.88795161      -0.39200891       0.00000000
Si      -0.78654703      -1.26309402      -1.88617084       0.00000000
Si      -2.23254517       1.98281880      -1.71578305       0.00000000
Si      -1.15232269       0.60978357      -3.26045574       0.00000000
Si       3.34077601      -1.15963623      -0.66572355       0.00000000
Si       1.34251103      -3.14484966       1.64789631       0.00000000
Si      -2.74973638      -2.45065131      -1.18005245       0.00000000
Si       1.07551304       0.29134665       3.74185630       0.00000000
