10
Lattice="16.28999089631971 0.0 0.0 0.0 16.28999089631971 0.0 0.0 0.0 34.40785480372833" Properties=species:S:1:pos:R:3:initial_magmoms:R:1 pbc="T T T"
Si       2.00389806      -0.38424852      -1.20441322       0.00000000
Si      -1.79087373      -1.53104823       0.72246213       0.00000000
Si       0.73526544       0.86379354       2.22757337       0.00000000
Si      -1.60819767       0.47144889      -1.86876045       0.00000000
Si       1.33832124      -2.41873920      -2.07544855       0.00000000
Si      -0.89085123       2.55293622       2.33194966       0.00000000
Si       0.18220365      -0.98422551       3.57558511       0.00000000
Si       1.98092916       1.38846186      -2.82609073       0.00000000
Si      -1.80314010      -3.13768206      -0.98819414       0.00000000
Si      -0.93936285      -2.76374511       2.49587531       0.00000000
