10
Lattice="16.28999089631971 0.0 0.0 0.0 16.28999089631971 0.0 0.0 0.0 34.40785480372833" Properties=species:S:1:pos:R:3:initial_magmoms:R:1 pbc="T T T"
Si      -1.35602914      -1.35641943      -1.35728741       0.00000000
Si       1.35704497      -1.35697329       1.35745945       0.00000000
Si       1.35812011       1.35746199      -1.35701214       0.00000000
Si      -1.35807980       1.35767376       1.35739063       0.00000000
Si       2.71308973       0.00148239       2.71485008       0.00000000
Si       0.00326452       2.71002069      -2.71866935       0.00000000
Si       2.71369246       0.00298107      -2.71519416       0.00000000
Si      -2.71525045       0.00099369       2.71398988       0.00000000
Si       2.71483276      -2.71453302      -0.00041289       0.00000000
Si       2.71453954       2.71487511       0.00034408       0.00000000
