10
Lattice="16.28999089631971 0.0 0.0 0.0 16.28999089631971 0.0 0.0 0.0 34.40785480372833" Properties=species:S:1:pos:R:3:initial_magmoms:R:1 pbc="T T T"
Si      -1.33985902      -1.35021294       1.36090023       0.00000000
Si       1.35363384      -1.35233064      -1.35539497       0.00000000
Si       1.35726651       1.35200484       1.36207010       0.00000000
Si      -1.35754344       1.36104579      -1.35522293       0.00000000
Si      -2.60975916       0.09948303       2.66444254       0.00000000
Si       2.71103067      -2.70998811       0.00849874       0.00000000
Si      -0.00241092      -2.71078632      -2.71278560       0.00000000
Si       2.71257822       0.00360009      -2.71292324       0.00000000
Si       2.71283886       2.71670329       0.00474829       0.00000000
Si      -2.71753568       0.00386073      -2.71285442       0.00000000
