10
Lattice="16.28999089631971 0.0 0.0 0.0 16.28999089631971 0.0 0.0 0.0 34.40785480372833" Properties=species:S:1:pos:R:3:initial_magmoms:R:1 pbc="T T T"
Si       1.87721073      -0.36686709       1.39661561       0.00000000
Si      -1.60505370       0.46204860       1.73391600       0.00000000
Si       0.55397403       2.15271440      -1.00756578       0.00000000
Si      -0.74156967      -1.98724968      -1.37855147       0.00000000
Si       1.30753314       1.25240356      -3.04014212       0.00000000
Si      -0.52722585       2.24090846       2.91204160       0.00000000
Si      -1.91287117      -1.01273301      -3.07658006       0.00000000
Si       1.68184476       1.27666263       3.13878949       0.00000000
Si       1.54277703      -2.47666644       2.46900582       0.00000000
Si       3.64035888      -1.12915764      -0.33238006       0.00000000
