10
Lattice="16.290000149 0.0 0.0 0.0 16.290000149 0.0 0.0 0.0 29.1751946751" Properties=species:S:1:pos:R:3:initial_magmoms:R:1 pbc="T T T"
Si      -1.33509583      -1.36396986       1.36916271       0.00000000
Si       1.35016408      -1.34975032      -1.37310136       0.00000000
Si       1.36005211       1.34583094       1.36776230       0.00000000
Si      -1.36875097       1.34412049      -1.36449468       0.00000000
Si      -2.69641856      -2.70581789      -0.00948194       0.00000000
Si       2.71378370       2.69288363      -0.00700205       0.00000000
Si      -0.00998577       2.73281042       2.67901225       0.00000000
Si       2.72477945      -2.69615792      -0.03649817       0.00000000
Si      -2.76043827      -0.00231318       2.66792568       0.00000000
Si      -0.01907559       2.70905960      -2.72096618       0.00000000
