10
Lattice="16.290000149 0.0 0.0 0.0 16.290000149 0.0 0.0 0.0 29.1751946751" Properties=species:S:1:pos:R:3:initial_magmoms:R:1 pbc="T T T"
Si       1.32488200       1.38321649      -1.37651778       0.00000000
Si       1.34900749      -1.36249561       1.37621727       0.00000000
Si      -1.36311463       1.34762284       1.39073777       0.00000000
Si      -1.38912976      -1.37785708      -1.34238280       0.00000000
Si       2.52475454      -0.09106110      -2.80292222       0.00000000
Si      -2.64697841      -2.74745514       0.08337979       0.00000000
Si      -2.84014524       0.04025259      -2.56062223       0.00000000
Si       2.72108162       0.04370607       2.68843292       0.00000000
Si      -0.07387515       2.80732089      -2.60353894       0.00000000
Si       2.63458172       2.82900288      -0.00643897       0.00000000
