10
Lattice="16.290000149 0.0 0.0 0.0 16.290000149 0.0 0.0 0.0 29.1751946751" Properties=species:S:1:pos:R:3:initial_magmoms:R:1 pbc="T T T"
Si       1.36862065       1.34884459       1.33794525       0.00000000
Si       1.44275644      -1.33175801      -1.28274578       0.00000000
Si      -1.34972425      -1.38781679       1.33543619       0.00000000
Si      -1.37735209       1.33995025      -1.35889304       0.00000000
Si       0.11798847      -2.66799740      -2.62034093       0.00000000
Si       0.03362256       2.74439262      -2.61651023       0.00000000
Si       0.00317655       2.69602760       2.68817326       0.00000000
Si       2.69371442      -0.03471399       2.69797613       0.00000000
Si      -2.71235018      -0.02524950       2.68120039       0.00000000
Si      -2.79702561      -0.08910630      -2.59480680       0.00000000
