10
Lattice="16.290000149 0.0 0.0 0.0 16.290000149 0.0 0.0 0.0 29.1751946751" Properties=species:S:1:pos:R:3:initial_magmoms:R:1 pbc="T T T"
Si       1.34446258       1.35542738      -1.36513653       0.00000000
Si      -1.35674524      -1.36264059      -1.35002378       0.00000000
Si       1.39028635      -1.34749089       1.33298547       0.00000000
Si      -1.38458485       1.35420563       1.33435670       0.00000000
Si       0.02608029      -2.69661242       2.68213400       0.00000000
Si      -0.02808396       2.72113212       2.67119330       0.00000000
Si      -2.70264786      -0.00150845      -2.70518240       0.00000000
Si       2.70431921      -0.00204602      -2.70454055       0.00000000
Si       2.71795394       2.70244749      -0.02202727       0.00000000
Si       2.70998813      -2.71656767      -0.05035639       0.00000000
