10
Lattice="16.290000149 0.0 0.0 0.0 16.290000149 0.0 0.0 0.0 29.1751946751" Properties=species:S:1:pos:R:3:initial_magmoms:R:1 pbc="T T T"
Si      -1.33203331       1.36620322      -1.37213858       0.00000000
Si       1.37011282       1.37268664       1.33009713       0.00000000
Si       1.36957362      -1.33951042      -1.38083279       0.00000000
Si      -1.37867158      -1.32659245       1.38952700       0.00000000
Si      -2.63612927      -2.69456150      -0.06614017       0.00000000
Si       0.06083333      -2.67561623       2.67586133       0.00000000
Si      -0.02627577       2.70977636       2.67898308       0.00000000
Si      -2.70293456       2.70607853      -0.00650607       0.00000000
Si      -2.66380598       0.01125639      -2.75550961       0.00000000
Si       2.77695633       0.03507237       2.66235321       0.00000000
