10
Lattice="16.290000149 0.0 0.0 0.0 16.290000149 0.0 0.0 0.0 29.1751946751" Properties=species:S:1:pos:R:3:initial_magmoms:R:1 pbc="T T T"
Si      -1.28586745       1.40908501      -1.36414458       0.00000000
Si       1.44876094      -1.24636420      -1.36029345       0.00000000
Si       1.49495123       1.43264035       1.13771589       0.00000000
Si      -1.62126226      -1.06103287       1.43929988       0.00000000
H        0.27112099      -2.69876432       1.69283232       0.00000000
H       -1.05570604       1.40882437       2.83366996       0.00000000
Si      -2.60716565       2.46752777       0.27176694       0.00000000
Si      -0.00788436       2.55404396       2.62608845       0.00000000
Si      -3.29185065       0.61585975       1.69192789       0.00000000
Si       0.09675625      -2.66392001      -2.67822452       0.00000000
