10
Lattice="16.290000149 0.0 0.0 0.0 16.290000149 0.0 0.0 0.0 29.1751946751" Properties=species:S:1:pos:R:3:initial_magmoms:R:1 pbc="T T T"
Si      -1.41299461      -1.28398270       1.38162052       0.00000000
Si       1.32377428      -1.39408681      -1.36504901       0.00000000
Si       1.39999519       1.37093383       1.31384654       0.00000000
Si      -1.34752510       1.33358086      -1.40723634       0.00000000
Si       0.00850338       2.72373689       2.62839329       0.00000000
Si      -2.64204254      -2.71704170      -0.04565918       0.00000000
Si       2.58525560      -2.78532939       0.06579006       0.00000000
Si       2.69058674      -0.03528414      -2.74238077       0.00000000
Si      -2.71756298       2.72056034      -0.09598639       0.00000000
Si       2.74023867       2.71917569      -0.05899224       0.00000000
