10
Lattice="16.290000149 0.0 0.0 0.0 16.290000149 0.0 0.0 0.0 29.1751946751" Properties=species:S:1:pos:R:3:initial_magmoms:R:1 pbc="T T T"
Si      -1.30359097       1.38012139      -1.37584383       0.00000000
Si       1.37913911       1.36233271       1.33386073       0.00000000
Si       1.39638859      -1.33708973      -1.34888595       0.00000000
Si      -1.38249973      -1.33724285       1.38170804       0.00000000
Si       0.08827849      -2.62966328       2.65269623       0.00000000
Si      -2.67665879      -0.00369783      -2.68548914       0.00000000
Si      -2.62700687       2.75076201      -0.00210061       0.00000000
Si       0.02627577      -2.70977636      -2.67898308       0.00000000
Si      -2.61374681       0.09415620       2.79781364       0.00000000
Si       2.72704376       0.02679705       2.70952950       0.00000000
