10
Lattice="16.290000149 0.0 0.0 0.0 16.290000149 0.0 0.0 0.0 29.1751946751" Properties=species:S:1:pos:R:3:initial_magmoms:R:1 pbc="T T T"
Si      -1.34690608      -1.35689185      -1.36251077       0.00000000
Si      -1.36998901       1.36340785       1.33631144       0.00000000
Si       1.35138583       1.37556019      -1.34696039       0.00000000
Si       1.34591239      -1.35931906       1.36890013       0.00000000
Si      -0.00474039       2.71889876       2.68292173       0.00000000
Si      -2.70721883      -2.70127298       0.00989039       0.00000000
Si      -2.69939963       0.01031157      -2.71892392       0.00000000
Si       0.03101616      -2.70563870      -2.71320558       0.00000000
Si       2.77029372       0.04494411      -2.64919520       0.00000000
Si       2.71696025      -2.70500339       0.03054643       0.00000000
