10
Lattice="16.290000149 0.0 0.0 0.0 16.290000149 0.0 0.0 0.0 29.1751946751" Properties=species:S:1:pos:R:3:initial_magmoms:R:1 pbc="T T T"
Si       1.34377840       1.37815030      -1.31314634       0.00000000
Si      -1.36480879       1.36961434       1.34436380       0.00000000
Si       1.54864144      -1.32235705       1.18349177       0.00000000
Si      -1.40893840      -1.32356251      -1.35813449       0.00000000
Si       2.57282633       2.81120931       0.11413336       0.00000000
Si      -0.05685210       2.71897207      -2.67332309       0.00000000
Si       2.64761372       0.03199356      -2.74512324       0.00000000
Si       2.62985762      -2.74462068      -0.31342912       0.00000000
Si      -2.71148681       0.08107533       2.71702753       0.00000000
Si      -2.78658372      -2.64266156       0.00379278       0.00000000
