10
Lattice="16.290000149 0.0 0.0 0.0 16.290000149 0.0 0.0 0.0 29.1751946751" Properties=species:S:1:pos:R:3:initial_magmoms:R:1 pbc="T T T"
Si      -1.37779192       1.34768800       1.32061519       0.00000000
Si      -1.37127592      -1.36148563      -1.32642105       0.00000000
Si       1.35159760       1.39163842      -1.32656693       0.00000000
Si       1.35456238      -1.32986674       1.38876844       0.00000000
Si       0.04018743       2.65745288       2.63624142       0.00000000
Si       0.01420488      -2.67584429      -2.68455554       0.00000000
Si       2.70215264      -2.67737555       0.02249408       0.00000000
Si      -2.72696231       0.00895950      -2.66535826       0.00000000
Si      -2.72497493      -0.01221750       2.67128082       0.00000000
Si       2.69539229       0.06058251      -2.71308888       0.00000000
