10
Lattice="16.290000149 0.0 0.0 0.0 16.290000149 0.0 0.0 0.0 29.1751946751" Properties=species:S:1:pos:R:3:initial_magmoms:R:1 pbc="T T T"
Si       1.04498722      -1.11485829      -0.01919728       0.00000000
Si      -1.87134635       1.84658229      -0.72223194       0.00000000
Si      -0.33793605       2.56656772       0.88940581       0.00000000
H        1.21182940       2.16519840      -1.73551563       0.00000000
Si      -0.26296947       1.10595743       2.82121215       0.00000000
Si      -1.83676268      -0.58078249       2.37842022       0.00000000
Si       2.91387541      -0.21623835       1.10270566       0.00000000
Si      -1.24528906       0.77613380      -2.76930948       0.00000000
Si       1.32323671      -1.85103597      -2.22668003       0.00000000
Si       0.20989665      -3.04380608       1.00038825       0.00000000
