10
Lattice="16.290000149 0.0 0.0 0.0 16.290000149 0.0 0.0 0.0 29.1751946751" Properties=species:S:1:pos:R:3:initial_magmoms:R:1 pbc="T T T"
Si      -1.33633550      -1.35024553       1.37018384       0.00000000
Si       1.35132067      -1.36089919      -1.36181056       0.00000000
Si      -1.40684351       1.33761427      -1.33225609       0.00000000
Si       1.34288245       1.34579836       1.38993545       0.00000000
Si       2.65150703       2.69172704      -0.03355147       0.00000000
Si      -2.71495360       0.04504071       2.66932609       0.00000000
Si      -0.05934447       2.68991885      -2.70958786       0.00000000
Si       2.71552673      -0.01177767      -2.71095909       0.00000000
Si      -2.71612300      -2.71068860       0.01350812       0.00000000
Si      -0.07618833       2.70150104       2.72615937       0.00000000
