10
Lattice="16.290000149 0.0 0.0 0.0 16.290000149 0.0 0.0 0.0 29.1751946751" Properties=species:S:1:pos:R:3:initial_magmoms:R:1 pbc="T T T"
Si      -1.25304310       1.10673447      -1.60393550       0.00000000
Si      -1.89545555      -0.01603913       1.33882051       0.00000000
Si       1.57379320       1.68673992       0.44279193       0.00000000
Si       0.43508961      -2.28956767       0.30190491       0.00000000
H        1.83676268       0.58078249      -2.37842022       0.00000000
H       -2.07430346       1.37144697       1.94948651       0.00000000
Si      -1.06157044      -1.26046320       3.05229720       0.00000000
Si       2.04665933      -2.46302359      -1.37803197       0.00000000
Si       0.84343105       2.32100737       2.62225745       0.00000000
Si      -2.58613526       2.65340482      -0.44649718       0.00000000
