10
Lattice="16.290000149 0.0 0.0 0.0 16.290000149 0.0 0.0 0.0 29.1751946751" Properties=species:S:1:pos:R:3:initial_magmoms:R:1 pbc="T T T"
Si       1.21552723      -1.41563359       1.44942075       0.00000000
Si      -1.48162438       1.29853895       1.33937484       0.00000000
Si      -1.48959019      -1.25187022      -1.37476435       0.00000000
Si       1.61779249       1.48742525      -0.93847849       0.00000000
Si       2.55510281      -2.77097790       0.10333854       0.00000000
H        1.18491832      -1.11537631      -3.44246875       0.00000000
Si       0.88795162       3.67750011      -0.53694028       0.00000000
Si      -2.79687900      -2.61798221       0.11512532       0.00000000
H        3.07138179      -0.68315374      -2.20678255       0.00000000
Si      -0.18345798       2.58196828       2.84577475       0.00000000
