10
Lattice="16.290000149 0.0 0.0 0.0 16.290000149 0.0 0.0 0.0 29.1751946751" Properties=species:S:1:pos:R:3:initial_magmoms:R:1 pbc="T T T"
Si       1.13101634      -0.97205689      -0.28959298       0.00000000
Si      -1.89238325       1.63773145      -0.25353244       0.00000000
H       -1.16180933      -1.82200394       1.92955985       0.00000000
Si      -1.54916924       1.38561112       2.10329813       0.00000000
Si      -0.18639686      -2.67349853      -1.42512073       0.00000000
Si       2.41707113      -0.81764398       1.73589491       0.00000000
Si       2.61072665       0.23265378      -1.67500628       0.00000000
Si      -0.27112099       2.69876432      -1.69283232       0.00000000
Si      -1.09249538      -0.74637523       2.99060333       0.00000000
Si      -2.96074662      -0.05854626      -1.63979182       0.00000000
