10
Lattice="16.290000149 0.0 0.0 0.0 16.290000149 0.0 0.0 0.0 29.1751946751" Properties=species:S:1:pos:R:3:initial_magmoms:R:1 pbc="T T T"
Si      -2.06894405       0.71958632      -0.84634322       0.00000000
Si      -0.78679072      -1.50634772       1.70088467       0.00000000
Si       1.05497299      -0.66856930      -2.06694584       0.00000000
Si       0.92040130       2.08424525       0.81264587       0.00000000
H       -1.38865735       2.28195698       1.72860111       0.00000000
Si      -1.31338126       1.30768791      -2.99871403       0.00000000
Si      -2.67055004       2.24059667       0.90982845       0.00000000
H        0.37524015      -3.60785548      -0.52494928       0.00000000
Si      -2.32875326      -2.82849300       0.51021580       0.00000000
Si      -3.35321671      -1.26862774      -0.96383173       0.00000000
