10
Lattice="16.290000149 0.0 0.0 0.0 16.290000149 0.0 0.0 0.0 29.1751946751" Properties=species:S:1:pos:R:3:initial_magmoms:R:1 pbc="T T T"
H       -1.13101634       0.97205689       0.28959298       0.00000000
H        1.51022148      -1.47665593      -0.62682906       0.00000000
Si       1.47971031       1.20471067      -1.38541329       0.00000000
Si       1.28605479       0.15441291       2.02548789       0.00000000
Si      -1.31741320      -1.70144165      -1.13552775       0.00000000
H       -2.29282567      -0.84994705       2.21915283       0.00000000
Si       2.12687943      -2.78076493      -0.18753815       0.00000000
Si       0.04662361       2.42445701      -2.76353279       0.00000000
Si      -2.60368774      -0.35240157      -2.63761265       0.00000000
Si       0.73665824       2.52835463       2.76723804       0.00000000
