10
Lattice="16.290000149 0.0 0.0 0.0 16.290000149 0.0 0.0 0.0 29.1751946751" Properties=species:S:1:pos:R:3:initial_magmoms:R:1 pbc="T T T"
Si      -1.14214078      -0.13102047       2.06146091       0.00000000
Si      -1.52425531       0.99818605      -1.50421469       0.00000000
Si       0.99636157      -1.77391586      -1.25753842       0.00000000
Si       1.53158581       1.84178000       0.42791258       0.00000000
H       -2.05245857      -2.80810281      -0.90163022       0.00000000
Si       2.30081591      -0.47558655      -2.75635569       0.00000000
H        0.68696560      -2.97582465       1.95187887       0.00000000
Si      -2.55321317       2.61926912      -0.18494156       0.00000000
Si      -0.23056866       2.43386628      -2.78395543       0.00000000
Si       0.41824575       0.64900990       3.65498086       0.00000000
