10
Lattice="16.290000149 0.0 0.0 0.0 16.290000149 0.0 0.0 0.0 29.1751946751" Properties=species:S:1:pos:R:3:initial_magmoms:R:1 pbc="T T T"
Si       1.43058781      -1.22596912      -1.28615928       0.00000000
Si      -1.22209210       1.53127630      -1.24356350       0.00000000
Si       1.48602268       1.01700100       1.46900023       0.00000000
Si      -1.12278826      -1.44034552       1.55022397       0.00000000
H        2.07366815      -2.06793407      -0.20650203       0.00000000
Si      -1.99883189       0.33967908       2.83349491       0.00000000
Si      -0.12652443       1.80367769       2.98993230       0.00000000
Si       2.46226610      -0.84321928       2.36610829       0.00000000
Si      -0.01154961      -2.55412541      -2.49567533       0.00000000
Si       0.69592510      -2.32691249       2.69931819       0.00000000
