10
Lattice="16.290000149 0.0 0.0 0.0 16.290000149 0.0 0.0 0.0 29.1751946751" Properties=species:S:1:pos:R:3:initial_magmoms:R:1 pbc="T T T"
Si      -1.36061412      -1.35001747       1.35308718       0.00000000
Si      -1.38943113       1.34886088      -1.32965950       0.00000000
Si       1.31810536      -1.36344043      -1.39031473       0.00000000
Si       1.36927225       1.36254448       1.35171594       0.00000000
Si      -0.01355328       2.69651630      -2.68044184       0.00000000
Si       0.01037673      -2.69252525       2.70894600       0.00000000
Si       2.68530878      -2.72091872      -0.06263914       0.00000000
Si       2.68669343      -0.01966203      -2.73304471       0.00000000
Si      -2.69817142       0.01275507       2.72703462       0.00000000
Si      -2.70352415      -0.01775610      -2.72382535       0.00000000
