10
Lattice="16.290000149 0.0 0.0 0.0 16.290000149 0.0 0.0 0.0 29.1751946751" Properties=species:S:1:pos:R:3:initial_magmoms:R:1 pbc="T T T"
Si      -1.30697929       1.42293151       1.30402296       0.00000000
Si       1.26078085       1.48491496      -1.33056393       0.00000000
Si       1.45101547      -1.41810967       1.21823943       0.00000000
Si      -1.38020284      -1.02858319      -1.62987225       0.00000000
Si       0.33769170      -1.47232279      -3.15264236       0.00000000
Si      -0.43000713       2.41556267      -2.64362274       0.00000000
Si       2.23534640       0.02606400      -2.83507037       0.00000000
Si      -2.22562127       0.82029925      -2.75072488       0.00000000
Si       2.40852539      -2.68986998      -0.53469379       0.00000000
Si      -2.60784983      -0.06138072       2.57680279       0.00000000
