10
Lattice="16.290000149 0.0 0.0 0.0 16.290000149 0.0 0.0 0.0 29.1751946751" Properties=species:S:1:pos:R:3:initial_magmoms:R:1 pbc="T T T"
Si      -1.32993891       1.40879179      -1.31110407       0.00000000
Si       1.33491452       1.37701000       1.34515153       0.00000000
Si       1.35050080      -1.32647842      -1.40676954       0.00000000
Si      -1.38512943      -1.33167493       1.36782065       0.00000000
Si      -2.72012752       0.06387309      -2.58663483       0.00000000
Si       2.64449533      -2.67968873       0.02497397       0.00000000
Si       2.67795499       0.01892898       2.70862507       0.00000000
Si       2.66601442       2.73448830      -0.03830703       0.00000000
Si      -0.05345450       2.73797436       2.66836330       0.00000000
Si      -2.75375008      -2.68051952       0.02987540       0.00000000
