10
Lattice="16.290000149 0.0 0.0 0.0 16.290000149 0.0 0.0 0.0 29.1751946751" Properties=species:S:1:pos:R:3:initial_magmoms:R:1 pbc="T T T"
Si      -1.35980776      -1.36340785       1.34246741       0.00000000
Si      -1.36003582       1.35304090      -1.35270790       0.00000000
Si       1.33177267       1.35494683       1.38337103       0.00000000
Si       1.35083197      -1.36068742      -1.36026428       0.00000000
Si       2.68340285       2.70614369       0.00983204       0.00000000
Si      -2.71251308       0.02169828       2.67988751       0.00000000
Si       0.02767671      -2.70581789       2.68936945       0.00000000
Si      -2.70677900      -0.03473028      -2.69228696       0.00000000
Si       2.66380598      -0.01125639       2.75550961       0.00000000
Si      -0.01031157       2.74085769      -2.68814409       0.00000000
