10
Lattice="16.290000149 0.0 0.0 0.0 16.290000149 0.0 0.0 0.0 29.1751946751" Properties=species:S:1:pos:R:3:initial_magmoms:R:1 pbc="T T T"
Si       1.35272161      -1.35658234      -1.33275207       0.00000000
Si      -1.17836974      -1.51418809       1.33849958       0.00000000
Si       1.54196254       1.32214528       1.19066887       0.00000000
Si      -1.02446345       1.55986525      -1.47404754       0.00000000
H        2.70399341      -0.77936248      -1.03516508       0.00000000
Si       0.13937724       2.50916501       2.66375362       0.00000000
Si      -1.42373624      -3.39726324      -0.05832121       0.00000000
Si       2.32875326       2.82849300      -0.51021580       0.00000000
Si       0.88371622      -3.54335196      -0.68407079       0.00000000
Si      -2.63858906      -0.29501190       2.67049309       0.00000000
