10
Lattice="16.290000149 0.0 0.0 0.0 16.290000149 0.0 0.0 0.0 29.1751946751" Properties=species:S:1:pos:R:3:initial_magmoms:R:1 pbc="T T T"
Si      -1.30657204      -1.31432120      -1.44644780       0.00000000
Si      -1.32377428       1.39408681       1.36504901       0.00000000
Si       1.26148132      -1.39124258       1.43083907       0.00000000
Si       1.36681246       1.35880267      -1.37733177       0.00000000
Si      -2.66198150      -2.66911164      -0.11258708       0.00000000
Si       2.66097152       0.02525765       2.68986542       0.00000000
Si       2.69107544      -2.67386832       0.01870130       0.00000000
Si      -2.67129938       2.72766767      -0.04218733       0.00000000
Si       0.07622091       2.76502064       2.67889555       0.00000000
Si      -2.68118741       0.03208641      -2.78305100       0.00000000
