10
Lattice="16.290000149 0.0 0.0 0.0 16.290000149 0.0 0.0 0.0 29.1751946751" Properties=species:S:1:pos:R:3:initial_magmoms:R:1 pbc="T T T"
Si       1.36061412       1.35001747      -1.35308718       0.00000000
Si       1.37099085      -1.34250778       1.35585882       0.00000000
Si      -1.33755730       1.36277254       1.37394744       0.00000000
Si      -1.34815227      -1.37907883      -1.35063646       0.00000000
Si      -2.68847719      -0.04812066       2.67708669       0.00000000
Si       2.66992288      -2.70119153      -0.06074276       0.00000000
Si      -0.02881701       2.69887835      -2.68274668       0.00000000
Si      -2.69090440      -0.02122587      -2.71941990       0.00000000
Si       2.67871948      -0.01342296      -2.74340191       0.00000000
Si       2.72568355       0.04189788       2.70524075       0.00000000
