10
Lattice="16.290000149 0.0 0.0 0.0 16.290000149 0.0 0.0 0.0 29.1751946751" Properties=species:S:1:pos:R:3:initial_magmoms:R:1 pbc="T T T"
Si      -1.36923967       1.34803009      -1.34144628       0.00000000
Si      -1.37512036      -1.34249149       1.34194225       0.00000000
Si       1.35505108      -1.35294967      -1.36601179       0.00000000
Si       1.35739684       1.36296802       1.35810531       0.00000000
Si       0.01042560       2.69164559      -2.67664906       0.00000000
Si      -0.01110978      -2.73644310       2.64481892       0.00000000
Si       2.71827974      -2.69249267      -0.00236319       0.00000000
Si      -2.72743472       0.02766042       2.69243284       0.00000000
Si       2.71059086       0.01760949      -2.71235950       0.00000000
Si      -2.72938952      -2.69606018      -0.01864295       0.00000000
