10
Lattice="16.290000149 0.0 0.0 0.0 16.290000149 0.0 0.0 0.0 29.1751946751" Properties=species:S:1:pos:R:3:initial_magmoms:R:1 pbc="T T T"
H       -0.08037649       1.62675199       0.78291635       0.00000000
Si       1.52169615      -1.08473482       1.41312973       0.00000000
Si      -1.49495123      -1.43264035      -1.13771589       0.00000000
Si       1.30613058       1.48421449      -1.30856583       0.00000000
Si      -1.50283559       1.12140361       1.48837256       0.00000000
H       -2.55065727      -0.02381598       1.69595407       0.00000000
Si       1.90240975       0.72624079       2.90284434       0.00000000
Si      -0.40504271       0.87232951       3.52859392       0.00000000
Si      -0.04619030      -2.67900455      -2.49800934       0.00000000
Si      -2.78081868      -0.02355534      -2.50186047       0.00000000
