10
Lattice="16.290000149 0.0 0.0 0.0 16.290000149 0.0 0.0 0.0 29.1751946751" Properties=species:S:1:pos:R:3:initial_magmoms:R:1 pbc="T T T"
Si       0.88011613      -0.85621870       0.88555468       0.00000000
H       -1.88646347      -0.43222257      -1.23568620       0.00000000
Si       0.89787223       0.98546356      -2.07073862       0.00000000
Si      -0.98844463      -0.35741889      -2.45847695       0.00000000
Si      -0.72078364       2.51501149      -0.99379466       0.00000000
Si      -1.45358929       2.17057899       1.26830406       0.00000000
Si       1.91104508      -2.34303959      -0.58534193       0.00000000
Si      -0.51627897      -2.08782416       2.31012109       0.00000000
Si       2.77760793       0.44468442       1.51734352       0.00000000
Si       2.82879111      -0.50880186      -1.75611332       0.00000000
