10
Lattice="16.290000149 0.0 0.0 0.0 16.290000149 0.0 0.0 0.0 29.1751946751" Properties=species:S:1:pos:R:3:initial_magmoms:R:1 pbc="T T T"
Si      -1.41288058      -1.29643966      -1.34301328       0.00000000
Si      -1.38199474       1.35641944       1.32452175       0.00000000
Si       1.32079321       1.40304142      -1.34387073       0.00000000
Si       1.37112931      -1.41200092       1.30432376       0.00000000
Si       2.62514981       2.58712895       0.20970546       0.00000000
Si       2.66036879       0.04769712      -2.68995295       0.00000000
Si      -0.10590129      -2.71937117      -2.64703624       0.00000000
Si      -2.69161301       0.20069280      -2.67816617       0.00000000
Si      -2.73530279      -0.04137660       2.64484810       0.00000000
Si      -0.04496040       2.68115483       2.72942699       0.00000000
