10
Lattice="16.290000149 0.0 0.0 0.0 16.290000149 0.0 0.0 0.0 29.1751946751" Properties=species:S:1:pos:R:3:initial_magmoms:R:1 pbc="T T T"
Si      -1.48807522       1.26591220       1.28741382       0.00000000
Si       1.29830666       1.35930277      -1.44385121       0.00000000
Si      -1.42674337      -1.27353592      -1.40461057       0.00000000
Si       1.28627454      -1.34904007       1.50208490       0.00000000
H        1.47267140       1.32445846       2.92720563       0.00000000
Si      -2.88184764      -0.56031085       2.03310262       0.00000000
Si      -2.77480605      -2.29416959       0.22812085       0.00000000
Si       2.50370298      -2.63484725      -0.10412627       0.00000000
Si       2.60368774       0.35240157       2.63761265       0.00000000
Si       2.65031135       2.77685859      -0.12592014       0.00000000
