10
Lattice="16.290000149 0.0 0.0 0.0 16.290000149 0.0 0.0 0.0 29.1751946751" Properties=species:S:1:pos:R:3:initial_magmoms:R:1 pbc="T T T"
Si       1.34379469      -1.33105591      -1.38652195       0.00000000
Si      -1.36322866       1.33954300      -1.36364860       0.00000000
Si      -1.35159760      -1.39163842       1.32656693       0.00000000
Si       1.37021707       1.34799751       1.35600470       0.00000000
Si      -2.72938953      -0.04395042       2.64718211       0.00000000
Si       2.68890887      -2.71178003      -0.03165509       0.00000000
Si      -2.69840594      -0.06489936      -2.70220653       0.00000000
Si      -2.71827974       2.69249267       0.00236319       0.00000000
Si       2.71821144       2.70148475      -0.00148793       0.00000000
Si      -0.00768888       2.71010216      -2.70999631       0.00000000
