10
Lattice="16.290000149 0.0 0.0 0.0 16.290000149 0.0 0.0 0.0 29.1751946751" Properties=species:S:1:pos:R:3:initial_magmoms:R:1 pbc="T T T"
Si       1.34799437       1.35348724      -1.35749263       0.00000000
Si      -1.34361550       1.36505314       1.35136584       0.00000000
Si       1.34275213      -1.35785296       1.36878343       0.00000000
Si      -1.37021707      -1.34799751      -1.35600470       0.00000000
Si      -2.68162724      -0.08218305       2.60680364       0.00000000
Si       2.67053213      -2.70697448      -0.02643273       0.00000000
Si       2.66208739       2.72010422       0.03667322       0.00000000
Si      -0.02046024       2.71018361      -2.69826788       0.00000000
Si       2.69090440       0.02122587       2.71941990       0.00000000
Si      -0.02642238      -2.67905342      -2.74252665       0.00000000
