10
Lattice="16.290000149 0.0 0.0 0.0 16.290000149 0.0 0.0 0.0 29.1751946751" Properties=species:S:1:pos:R:3:initial_magmoms:R:1 pbc="T T T"
Si      -1.43127199       1.32427927       1.27915724       0.00000000
Si      -1.38104992      -1.33924978      -1.32872589       0.00000000
Si       1.34718301       1.35990550      -1.35066564       0.00000000
Si       1.35262387      -1.33397182       1.38118289       0.00000000
Si      -0.01018125       2.71301807       2.46559570       0.00000000
Si      -0.00231318      -2.70516629      -2.64009254       0.00000000
Si       2.72497493       0.01221750      -2.67128082       0.00000000
Si      -2.73152352       0.03785796      -2.67040557       0.00000000
Si      -0.01682757       2.75385711      -2.65354231       0.00000000
Si       2.72640845      -2.69260670       0.06088863       0.00000000
