10
Lattice="16.290000149 0.0 0.0 0.0 16.290000149 0.0 0.0 0.0 29.1751946751" Properties=species:S:1:pos:R:3:initial_magmoms:R:1 pbc="T T T"
Si      -1.34790466       1.33553566      -1.37566878       0.00000000
Si       1.31067712       1.46899963       1.28049929       0.00000000
Si      -1.41034423      -1.29395218       1.38876844       0.00000000
Si       1.41907078      -1.35570268      -1.33622392       0.00000000
H        2.21509793       0.57045952       2.09177393       0.00000000
H        0.19986201       0.21664071       3.50367830       0.00000000
Si      -0.02976183      -2.74520712       2.54419368       0.00000000
Si      -2.63876527      -2.65646033      -0.05683328       0.00000000
Si      -2.61574055       2.70019784       0.04904350       0.00000000
Si       0.07618833      -2.70150104      -2.72615937       0.00000000
