10
Lattice="16.290000149 0.0 0.0 0.0 16.290000149 0.0 0.0 0.0 29.1751946751" Properties=species:S:1:pos:R:3:initial_magmoms:R:1 pbc="T T T"
Si       1.30023523      -1.34947990       1.41876054       0.00000000
Si      -1.37792224       1.34874685       1.35069481       0.00000000
Si      -1.42848640      -1.40395366      -1.24271158       0.00000000
Si       1.42715062       1.39074247      -1.28164296       0.00000000
Si      -2.63148662      -0.00746082      -2.68481520       0.00000000
Si       2.71440272      -0.05849739      -2.60968615       0.00000000
Si       0.05216058       2.65523744      -2.69928901       0.00000000
Si      -0.11329695      -2.72704051      -2.64377153       0.00000000
Si       2.63037890      -2.76907359       0.13239703       0.00000000
Si      -0.03101616       2.70563870       2.71320558       0.00000000
