10
Lattice="16.290000149 0.0 0.0 0.0 16.290000149 0.0 0.0 0.0 29.1751946751" Properties=species:S:1:pos:R:3:initial_magmoms:R:1 pbc="T T T"
Si       1.47077822      -1.29242043       1.27098818       0.00000000
Si      -1.39949020      -1.41650022      -1.25902635       0.00000000
Si      -1.23124708       1.43139906       1.41610560       0.00000000
Si       1.38249973       1.33724285      -1.38170804       0.00000000
Si       0.15872976      -2.62977943       2.63606636       0.00000000
Si      -2.58475061       2.73976300      -0.01096987       0.00000000
Si      -2.66097152      -0.02525765      -2.68986542       0.00000000
Si       0.03010392      -2.69912596      -2.67116412       0.00000000
Si       2.69919927       0.07008773       2.71658990       0.00000000
Si       2.76163884       2.69957557      -0.04784732       0.00000000
