10
Lattice="16.290000149 0.0 0.0 0.0 16.290000149 0.0 0.0 0.0 29.1751946751" Properties=species:S:1:pos:R:3:initial_magmoms:R:1 pbc="T T T"
Si       1.28333273       1.41149593       1.31606386       0.00000000
Si      -1.31882212       1.37824804      -1.33275207       0.00000000
Si       1.40875433      -1.31432608      -1.31320469       0.00000000
Si      -1.32633181      -1.31546638       1.43988338       0.00000000
Si      -2.55435347       2.74626597       0.08507487       0.00000000
Si       0.01629000      -2.69032610      -2.62270413       0.00000000
Si       2.77881339      -2.55658520       0.12804993       0.00000000
Si      -2.70658352       0.01943397      -2.66235321       0.00000000
Si       2.74064591       0.08386092      -2.65397993       0.00000000
Si       2.76061746       0.19230345       2.63317802       0.00000000
