10
Lattice="16.290000149 0.0 0.0 0.0 16.290000149 0.0 0.0 0.0 29.1751946751" Properties=species:S:1:pos:R:3:initial_magmoms:R:1 pbc="T T T"
Si       1.33014367      -1.41959369      -1.28636351       0.00000000
Si      -1.34864911      -1.37363309       1.33730340       0.00000000
Si       1.38570886       1.35011521       1.32499147       0.00000000
Si      -1.30023523       1.34947990      -1.41876054       0.00000000
Si       2.66369195      -0.07936488      -2.61502521       0.00000000
Si       0.01466100       2.69579954       2.66334517       0.00000000
Si      -2.67815747       2.69822675      -0.06806573       0.00000000
Si      -2.70850574      -0.01615968       2.67670741       0.00000000
Si      -2.72872163      -0.05447376      -2.66147212       0.00000000
Si       0.03404610      -2.73276156       2.65955240       0.00000000
