10
Lattice="16.290000149 0.0 0.0 0.0 16.290000149 0.0 0.0 0.0 29.1751946751" Properties=species:S:1:pos:R:3:initial_magmoms:R:1 pbc="T T T"
Si       1.77622904       1.00856278       1.14716865       0.00000000
Si       1.33384802      -1.29958363      -1.43492360       0.00000000
Si      -1.22826601       1.49643199      -1.36598261       0.00000000
Si      -1.30445434      -1.29832930       1.49881728       0.00000000
H        1.42462567      -2.37623861       1.97367274       0.00000000
H       -3.14950863      -0.79011388      -1.58771409       0.00000000
Si      -2.30081591       0.47558655       2.75635569       0.00000000
Si      -2.50383818       0.03518640      -2.66591259       0.00000000
Si       3.42793731      -0.65653588       1.22845075       0.00000000
Si       2.81113275      -2.51877611      -0.11780944       0.00000000
