10
Lattice="16.290000149 0.0 0.0 0.0 16.290000149 0.0 0.0 0.0 29.1751946751" Properties=species:S:1:pos:R:3:initial_magmoms:R:1 pbc="T T T"
Si      -1.33975477      -1.33307587       1.37426837       0.00000000
Si       1.37378458      -1.35863488      -1.32029426       0.00000000
Si       1.35907471       1.30868974       1.38821411       0.00000000
Si      -1.35262387       1.33397182      -1.38118289       0.00000000
Si      -0.06755463       2.75327067       2.51157581       0.00000000
Si      -0.00063531      -2.72256401      -2.65164592       0.00000000
Si      -2.77790115       0.03761361       2.60560746       0.00000000
Si       2.72691345       0.01632258      -2.66369527       0.00000000
Si      -2.72440478      -2.68263722       0.03436838       0.00000000
Si       2.70883154       2.70011639       0.04387949       0.00000000
