10
Lattice="16.290000149 0.0 0.0 0.0 16.290000149 0.0 0.0 0.0 29.1751946751" Properties=species:S:1:pos:R:3:initial_magmoms:R:1 pbc="T T T"
Si       0.44847999      -0.43344432       2.21646871       0.00000000
Si       1.82834075       1.31310433      -0.61568413       0.00000000
Si      -1.65170828       1.66509866      -0.08128209       0.00000000
Si      -0.61680457      -1.86224024      -1.34626018       0.00000000
H       -2.00331164      -1.71970274       0.74522200       0.00000000
H        1.79975180       0.14377554       2.51405570       0.00000000
Si       0.79301350       2.13745979      -2.57080145       0.00000000
Si      -2.09408929      -0.64304776      -2.66337435       0.00000000
Si      -3.42793731       0.65653588      -1.22845075       0.00000000
Si      -0.73515142       3.40158009      -1.35848459       0.00000000
