10
Lattice="16.290000149 0.0 0.0 0.0 16.290000149 0.0 0.0 0.0 29.1751946751" Properties=species:S:1:pos:R:3:initial_magmoms:R:1 pbc="T T T"
Si      -1.32476797      -1.33623939      -1.33759515       0.00000000
Si       1.31684989      -1.43514738       1.27591879       0.00000000
Si      -1.44275644       1.33175801       1.28274578       0.00000000
Si       1.29930781       1.29043028      -1.47192066       0.00000000
Si       2.63090996      -0.05107892       2.63962574       0.00000000
Si      -0.07413579       2.68060260       2.62069104       0.00000000
Si      -2.74185137       0.00678967      -2.59196222       0.00000000
Si       2.66149443       2.68579911      -0.15389915       0.00000000
Si      -0.15152958       2.67436353      -2.69787110       0.00000000
Si      -0.08161290      -2.76978710       2.61062559       0.00000000
