10
Lattice="16.290000149 0.0 0.0 0.0 16.290000149 0.0 0.0 0.0 29.1751946751" Properties=species:S:1:pos:R:3:initial_magmoms:R:1 pbc="T T T"
H        1.07776270      -1.71553250      -0.78619593       0.00000000
Si      -0.24936732       0.51337935      -2.29860885       0.00000000
Si       1.94215898       0.85201588       1.06215768       0.00000000
Si      -1.74602738       1.54248382       0.45178343       0.00000000
Si      -0.83479735      -1.99744724       1.09126869       0.00000000
Si       0.71042320       2.05312157       2.65857765       0.00000000
Si      -2.17220636      -0.84328444       2.64848595       0.00000000
Si       1.97960969      -2.45627138      -1.76444021       0.00000000
Si      -2.14685912      -0.78752377      -2.93039769       0.00000000
Si      -0.70666021       3.39615063       1.40421058       0.00000000
