10
Lattice="16.290000149 0.0 0.0 0.0 16.290000149 0.0 0.0 0.0 29.1751946751" Properties=species:S:1:pos:R:3:initial_magmoms:R:1 pbc="T T T"
Si       1.28586745      -1.40908501       1.36414458       0.00000000
Si      -1.32129820       1.05844276       1.63591152       0.00000000
Si       1.32633181       1.31546638      -1.43988338       0.00000000
Si      -1.40082598      -1.37310040      -1.31580128       0.00000000
H       -2.50950710       1.56379114       0.83411882       0.00000000
Si      -2.00598320      -0.79322527       3.05607247       0.00000000
Si       2.78081868       0.02355534       2.50186047       0.00000000
H       -1.87369211       3.23643207      -0.27661002       0.00000000
Si      -0.33539481      -2.47011788       2.80344446       0.00000000
Si       2.60966454       2.72696231      -0.12381953       0.00000000
