10
Lattice="16.290000149 0.0 0.0 0.0 16.290000149 0.0 0.0 0.0 29.1751946751" Properties=species:S:1:pos:R:3:initial_magmoms:R:1 pbc="T T T"
Si       1.39949020       1.41650022       1.25902635       0.00000000
Si      -1.26148132       1.39124258      -1.43083907       0.00000000
Si       1.42959412      -1.28262574      -1.41213777       0.00000000
Si      -1.29787318      -1.58965966       1.27483931       0.00000000
Si      -2.52742610      -2.72767907      -0.35045244       0.00000000
Si       0.28264779      -2.67452480       2.59516274       0.00000000
Si      -2.58525560       2.78532939      -0.06579006       0.00000000
Si       2.87026843       0.12407979       2.53001453       0.00000000
Si      -2.56805336       0.07692138      -2.87728687       0.00000000
Si       2.86909903      -2.63164952      -0.12580344       0.00000000
