10
Lattice="16.290000149 0.0 0.0 0.0 16.290000149 0.0 0.0 0.0 29.1751946751" Properties=species:S:1:pos:R:3:initial_magmoms:R:1 pbc="T T T"
Si       1.32688567      -1.44023149       1.26947107       0.00000000
Si      -1.34822557      -1.36233271      -1.34783564       0.00000000
Si       1.38901573       1.35949825      -1.31273788       0.00000000
Si      -1.29081961       1.36956547       1.41120417       0.00000000
Si       2.74797642      -0.05149269       2.45590954       0.00000000
Si       0.01964574       2.70117524      -2.66597094       0.00000000
Si      -2.66426210       2.72113049       0.06651944       0.00000000
Si      -0.05245380      -2.78089851       2.60438210       0.00000000
Si      -2.71542899      -0.00485442      -2.67551123       0.00000000
Si       2.74133010      -0.01065366      -2.66322847       0.00000000
