10
Lattice="16.290000149 0.0 0.0 0.0 16.290000149 0.0 0.0 0.0 29.1751946751" Properties=species:S:1:pos:R:3:initial_magmoms:R:1 pbc="T T T"
Si      -1.23553135       1.36801792       1.41782694       0.00000000
Si       1.31882212      -1.37824804       1.33275207       0.00000000
Si       1.35091989       1.41089320      -1.30313925       0.00000000
Si      -1.38776140      -1.35881407      -1.32960115       0.00000000
H       -1.88120180       0.54271764       2.49602543       0.00000000
Si       2.60215485       0.03324789       2.64881592       0.00000000
Si      -2.81605233       2.45288306       0.09750350       0.00000000
Si      -0.08858502       2.75991699      -2.58947358       0.00000000
Si       2.68847719       0.04812066      -2.67708669       0.00000000
Si      -0.00452862      -2.70259247      -2.66529991       0.00000000
