10
Lattice="16.290000149 0.0 0.0 0.0 16.290000149 0.0 0.0 0.0 29.1751946751" Properties=species:S:1:pos:R:3:initial_magmoms:R:1 pbc="T T T"
Si       1.31628088       1.35348724      -1.38873927       0.00000000
Si      -1.37645614       1.47481516       1.23381898       0.00000000
Si       1.59334120      -1.30603447       1.21120821       0.00000000
Si      -1.51125589      -1.33920091      -1.29920059       0.00000000
Si      -1.70491142      -2.38949867       2.11170059       0.00000000
Si      -2.25430796      -0.01555695       2.85345074       0.00000000
Si       2.37008099      -0.11443725      -2.86585020       0.00000000
Si       3.46564866       0.15796413       1.36764560       0.00000000
Si       3.12992805       2.11054871      -0.00568916       0.00000000
H        2.07379847       0.99401581       3.00320701       0.00000000
