10
Lattice="16.290000149 0.0 0.0 0.0 16.290000149 0.0 0.0 0.0 29.1751946751" Properties=species:S:1:pos:R:3:initial_magmoms:R:1 pbc="T T T"
Si       1.35500221      -1.35425287       1.30766140       0.00000000
Si      -1.30974859      -1.42869817      -1.32216147       0.00000000
Si       1.37297008       1.25582869      -1.43040144       0.00000000
Si      -1.19689147       1.40339980       1.47206362       0.00000000
Si      -2.56695053       2.64565892       0.03080901       0.00000000
Si      -2.63853857      -0.06675642      -2.68519739       0.00000000
Si       2.73564489       2.59688666      -0.12933364       0.00000000
Si       2.74701531      -0.00591327       2.59921809       0.00000000
Si      -2.56740828      -0.01093059       2.78774820       0.00000000
Si       0.00700470      -2.65968461       2.70127292       0.00000000
