10
Lattice="16.290000149 0.0 0.0 0.0 16.290000149 0.0 0.0 0.0 29.1751946751" Properties=species:S:1:pos:R:3:initial_magmoms:R:1 pbc="T T T"
Si       2.06894405      -0.71958632       0.84634322       0.00000000
Si       0.75556279       0.58810159      -2.15237081       0.00000000
Si      -1.28427266      -1.98821407      -0.11748851       0.00000000
Si      -0.60160600       1.52101035       1.75617167       0.00000000
H        0.68028670       1.56237066       2.57494433       0.00000000
H        0.13890483       1.89221058      -2.59166172       0.00000000
Si      -0.08526186       3.52327942       0.06065523       0.00000000
Si       1.28215333      -2.22593404       2.54722790       0.00000000
Si       3.12391704      -1.38815562      -1.22060262       0.00000000
Si      -1.96209631       0.13748271       3.09254146       0.00000000
