10
Lattice="16.28999089631971 0.0 0.0 0.0 16.28999089631971 0.0 0.0 0.0 34.474598006748145" Properties=species:S:1:pos:R:3:initial_magmoms:R:1 pbc="T T T"
Si       0.56159775      -2.32096662       0.42765763       0.00000000
Si      -1.26969147      -0.23459229      -2.23426547       0.00000000
Si       2.00173149       1.62316818      -0.23239340       0.00000000
Si      -0.92743857       0.51750072       2.38354056       0.00000000
Si       2.58181839      -2.74841622      -0.85107488       0.00000000
Si       2.07899496      -2.36433060       2.36347634       0.00000000
Si       2.60240895       2.24582085       2.21023666       0.00000000
Si      -1.32480054       1.91568771      -3.38358026       0.00000000
Si       0.89852382       1.42016220       3.75620748       0.00000000
Si      -2.61473071       2.27279709       2.55248059       0.00000000
