10
Lattice="16.28999089631971 0.0 0.0 0.0 16.28999089631971 0.0 0.0 0.0 34.474598006748145" Properties=species:S:1:pos:R:3:initial_magmoms:R:1 pbc="T T T"
Si      -1.42641756       1.16646174      -1.39143003       0.00000000
Si      -1.88304255      -0.83500911       1.30827725       0.00000000
Si       1.30329774      -1.56699211      -1.35409402       0.00000000
Si       0.85372632       1.89175770       1.42876604       0.00000000
Si      -0.05449005       2.50144353      -2.73742251       0.00000000
Si      -2.73597066       2.51594163       0.07884345       0.00000000
Si       2.70042588       2.59976997       0.00468855       0.00000000
Si       2.66737347      -0.21519090      -2.73590563       0.00000000
Si       2.53759104      -2.94567902       0.18550792       0.00000000
Si      -2.76661215      -0.21370851      -2.73569878       0.00000000
