10
Lattice="16.28999089631971 0.0 0.0 0.0 16.28999089631971 0.0 0.0 0.0 34.474598006748145" Properties=species:S:1:pos:R:3:initial_magmoms:R:1 pbc="T T T"
Si      -1.99140363      -0.17642722       1.28193864       0.00000000
Si       1.64546919       1.46426737       0.91647323       0.00000000
Si      -0.14664258       1.19380451      -2.06747727       0.00000000
Si       0.44973432      -2.35128135      -0.25983519       0.00000000
Si      -1.00095534      -0.86514072       3.30097908       0.00000000
Si       2.16968139       0.78355715      -2.78992735       0.00000000
Si       3.30675597       1.56319654      -0.66987629       0.00000000
Si      -1.96667541       0.04236377      -3.28812005       0.00000000
Si       1.22815197      -1.74861651       3.23220222       0.00000000
Si       0.43274385      -3.43788951       1.84197880       0.00000000
