10
Lattice="16.28999089631971 0.0 0.0 0.0 16.28999089631971 0.0 0.0 0.0 34.474598006748145" Properties=species:S:1:pos:R:3:initial_magmoms:R:1 pbc="T T T"
Si       0.98528436       1.89104094      -0.98032022       0.00000000
Si       0.12888648      -2.23303320      -0.77774737       0.00000000
Si       0.28036719      -0.09138690       2.35134127       0.00000000
Si      -2.26391904       0.69734232      -0.21239812       0.00000000
Si      -1.30978116      -3.15540558       0.91133651       0.00000000
Si       2.59757082      -0.09208737       2.48268956       0.00000000
Si       3.32289936      -1.43837442       0.64384795       0.00000000
Si      -2.62415610       1.65060054       1.99594244       0.00000000
Si      -0.19917783       3.68202870       0.09542574       0.00000000
Si      -0.42803604      -2.27519172       2.91510469       0.00000000
