10
Lattice="16.28999089631971 0.0 0.0 0.0 16.28999089631971 0.0 0.0 0.0 34.474598006748145" Properties=species:S:1:pos:R:3:initial_magmoms:R:1 pbc="T T T"
Si       0.74971467      -1.58975739      -1.58607372       0.00000000
Si       1.53404559       1.08804168       1.48512656       0.00000000
Si      -1.13604831      -1.52609607       1.54444704       0.00000000
Si      -0.84056400       2.17919475      -1.27397501       0.00000000
Si      -1.49719761      -1.89042192      -2.73556088       0.00000000
Si       2.14865100      -0.09031176      -3.01249548       0.00000000
Si       0.13077612       2.41285851       2.93314323       0.00000000
Si      -2.78831043       2.60767062       0.04998820       0.00000000
Si       2.82320361       2.58567912       0.14775821       0.00000000
Si      -2.59162497      -0.29662461       2.94433024       0.00000000
