10
Lattice="16.28999089631971 0.0 0.0 0.0 16.28999089631971 0.0 0.0 0.0 34.474598006748145" Properties=species:S:1:pos:R:3:initial_magmoms:R:1 pbc="T T T"
Si       0.37118394      -1.11140154       1.96784563       0.00000000
Si      -0.62537310       2.28398085       0.48850533       0.00000000
Si      -1.98262332      -1.57232709      -0.30661725       0.00000000
Si       2.02874031      -0.80640387      -1.57449025       0.00000000
Si      -1.08660816       2.82948245      -1.76217006       0.00000000
Si       1.16840025      -3.21835014       1.28738563       0.00000000
Si      -1.94784417       0.86027199      -2.98977671       0.00000000
Si      -0.71576631      -3.14538723      -1.85342437       0.00000000
Si      -2.59574634       1.93223088       1.90692898       0.00000000
Si       0.78713280      -1.98395910      -3.14422299       0.00000000
