10
Lattice="16.28999089631971 0.0 0.0 0.0 16.28999089631971 0.0 0.0 0.0 34.474598006748145" Properties=species:S:1:pos:R:3:initial_magmoms:R:1 pbc="T T T"
Si       0.01607823      -1.64853171       1.62072071       0.00000000
Si      -0.79721631       2.10694860       0.68046000       0.00000000
Si       2.33554617       0.49840884      -0.00792916       0.00000000
Si      -0.82336176      -1.47802428      -1.71556038       0.00000000
Si       2.60376102       0.71143317      -2.34117126       0.00000000
Si      -1.16840025       3.21835014      -1.28738563       0.00000000
Si      -1.88416656       0.07296291      -3.14081001       0.00000000
Si       0.26591796      -3.69670599       0.44520521       0.00000000
Si      -2.71435383       1.76748129       1.93985224       0.00000000
Si       3.37906728      -1.27260738       1.26125387       0.00000000
