10
Lattice="16.28999089631971 0.0 0.0 0.0 16.28999089631971 0.0 0.0 0.0 34.474598006748145" Properties=species:S:1:pos:R:3:initial_magmoms:R:1 pbc="T T T"
Si      -1.66262256       1.61148825       0.05660732       0.00000000
Si       0.37636416       0.16808022       2.31010963       0.00000000
Si      -0.37908459      -2.03532147      -1.11280617       0.00000000
Si       1.72458972       1.03456161      -1.23977619       0.00000000
Si       2.07443376      -2.41250013      -0.17006329       0.00000000
Si       1.11079881      -1.68319683      -3.01335735       0.00000000
Si       0.48195594       2.19001131      -2.91286384       0.00000000
Si      -0.86721444       3.30076125       1.44683074       0.00000000
Si      -3.42076968       0.61784712       1.35316320       0.00000000
Si      -0.60892020      -1.72296072       3.29042985       0.00000000
