10
Lattice="16.28999089631971 0.0 0.0 0.0 16.28999089631971 0.0 0.0 0.0 34.474598006748145" Properties=species:S:1:pos:R:3:initial_magmoms:R:1 pbc="T T T"
Si      -0.25664895       1.98727967      -1.41590701       0.00000000
Si       2.08007010      -1.03421952      -1.03165292       0.00000000
Si      -2.00173149      -1.62316818       0.23239340       0.00000000
Si       0.60067746       0.62265267       2.44263006       0.00000000
Si       1.26394110       1.57238152      -3.11740174       0.00000000
Si       0.69203178       3.74211341      -0.10252751       0.00000000
Si       3.05834976      -2.25160380       0.80205197       0.00000000
Si       2.60279991      -1.01134836       2.75703857       0.00000000
Si       1.27607715      -2.84995179      -2.39178000       0.00000000
Si      -2.55937077       2.23985612      -1.97960147       0.00000000
