10
Lattice="16.28999089631971 0.0 0.0 0.0 16.28999089631971 0.0 0.0 0.0 34.474598006748145" Properties=species:S:1:pos:R:3:initial_magmoms:R:1 pbc="T T T"
Si       1.35812988       1.35657748       1.35561090       0.00000000
Si       1.35659862      -1.35805395      -1.35695541       0.00000000
Si      -1.35812988       1.35691143      -1.35712778       0.00000000
Si      -1.35749457      -1.35640866       1.35909284       0.00000000
Si       2.70599706       0.00691773       2.71491058       0.00000000
Si       2.71331127       2.71429034       0.00065502       0.00000000
Si       0.00131949       2.71523516      -2.71335923       0.00000000
Si       2.71420722      -2.71541820       0.00037922       0.00000000
Si       2.71515204       0.00077183      -2.71449689       0.00000000
Si       0.00239463       2.71342697       2.71687564       0.00000000
