10
Lattice="16.28999089631971 0.0 0.0 0.0 16.28999089631971 0.0 0.0 0.0 34.474598006748145" Properties=species:S:1:pos:R:3:initial_magmoms:R:1 pbc="T T T"
Si       1.00038519       1.90273716       1.15272778       0.00000000
Si      -1.15784433       1.26460899      -1.76058423       0.00000000
Si      -1.37929059      -1.46619285       1.43852235       0.00000000
Si       1.54557891      -1.42742265      -1.74982815       0.00000000
Si      -2.47145364       2.73315249      -0.40411146       0.00000000
Si       0.42176439      -2.97456119       2.39943336       0.00000000
Si       2.75289597       2.67582798      -0.31871784       0.00000000
Si      -2.63428848      -2.81229650      -0.22329210       0.00000000
Si      -0.66630987       3.69106965       0.96756461       0.00000000
Si      -2.50450605      -0.08180838      -3.14470564       0.00000000
