10
Lattice="16.28999089631971 0.0 0.0 0.0 16.28999089631971 0.0 0.0 0.0 34.474598006748145" Properties=species:S:1:pos:R:3:initial_magmoms:R:1 pbc="T T T"
Si      -1.35741312      -1.35648459      -1.35609355       0.00000000
Si       1.35752715       1.35801585      -1.35599012       0.00000000
Si       1.35886293      -1.35586557       1.35947206       0.00000000
Si      -1.36054080       1.35689184       1.36009260       0.00000000
Si       2.70104490       0.01769094       2.71311790       0.00000000
Si       0.00037467      -2.71371852      -2.71311790       0.00000000
Si      -2.71458189       0.00057015      -2.71322133       0.00000000
Si       2.71362078      -2.71500543       0.00168926       0.00000000
Si       2.71531494       0.00050499      -2.71370397       0.00000000
Si      -2.71502172      -2.71404432       0.00117214       0.00000000
