10
Lattice="16.28999089631971 0.0 0.0 0.0 16.28999089631971 0.0 0.0 0.0 34.474598006748145" Properties=species:S:1:pos:R:3:initial_magmoms:R:1 pbc="T T T"
Si      -1.34666172      -1.34641737      -1.38412141       0.00000000
Si       1.36650294       1.37026593      -1.38498327       0.00000000
Si      -1.31360931       1.46854350       1.35647277       0.00000000
Si       1.15784433      -1.26460899       1.76058423       0.00000000
Si       2.15822952       0.63812817       2.91331201       0.00000000
Si       0.49153446       2.42646066       2.72814884       0.00000000
Si       2.70342324      -2.69203164       0.01075608       0.00000000
Si      -2.71073745      -2.69821859      -0.00230980       0.00000000
Si       0.00907353      -2.70326686      -2.74538615       0.00000000
Si      -2.70738171       0.01208718      -2.74328319       0.00000000
