10
Lattice="16.28999089631971 0.0 0.0 0.0 16.28999089631971 0.0 0.0 0.0 34.474598006748145" Properties=species:S:1:pos:R:3:initial_magmoms:R:1 pbc="T T T"
Si       0.30007809      -0.65441817       2.19492993       0.00000000
Si       0.19016946      -2.02391847      -1.17068905       0.00000000
Si      -2.25878769       0.19262925      -0.68059789       0.00000000
Si       1.26348498       2.04400404       0.23759906       0.00000000
Si      -2.10683457      -1.65402144      -2.11136346       0.00000000
Si      -0.70972272       1.17724572       3.17214743       0.00000000
Si      -0.11367162       3.07807695       1.89737951       0.00000000
Si      -2.32824825       2.10644361      -2.08412851       0.00000000
Si       2.57427612      -1.17441126       2.62093278       0.00000000
Si       2.33137593      -2.28718116      -2.12504988       0.00000000
