10
Lattice="16.28999089631971 0.0 0.0 0.0 16.28999089631971 0.0 0.0 0.0 34.474598006748145" Properties=species:S:1:pos:R:3:initial_magmoms:R:1 pbc="T T T"
Si       1.28915802       1.49763744      -1.33736835       0.00000000
Si       1.31861034      -1.39559688       1.43192736       0.00000000
Si      -1.53404559      -1.08804168      -1.48512656       0.00000000
Si      -1.40326947       1.32481683       1.44801666       0.00000000
Si      -2.67009390      -2.61413775       0.05932047       0.00000000
Si      -2.37460959       1.09115307      -2.75910157       0.00000000
Si       2.66291001      -0.02712285       2.82366421       0.00000000
Si      -2.80381851       2.69985573       0.05993757       0.00000000
Si       2.57572593      -2.91558420      -0.18898640       0.00000000
Si      -0.05401764       2.68970706       2.82514662       0.00000000
