10
Lattice="16.28999089631971 0.0 0.0 0.0 16.28999089631971 0.0 0.0 0.0 34.474598006748145" Properties=species:S:1:pos:R:3:initial_magmoms:R:1 pbc="T T T"
Si      -1.35622395      -1.35738054       1.35609355       0.00000000
Si       1.35713619      -1.35711990      -1.35812755       0.00000000
Si      -1.35744570       1.35755973      -1.35843782       0.00000000
Si       1.35892809       1.35948195       1.35623144       0.00000000
Si       0.00228060       2.71041165       2.71697906       0.00000000
Si      -2.71344159      -0.00192222       2.71542770       0.00000000
Si      -0.00013032       2.71407690      -2.71497953       0.00000000
Si       2.71371852      -0.00060273      -2.71560008       0.00000000
Si      -2.71469592       2.71477737      -0.00075844       0.00000000
Si       2.70980892      -0.00091224       2.71984046       0.00000000
