10
Lattice="16.28999089631971 0.0 0.0 0.0 16.28999089631971 0.0 0.0 0.0 34.474598006748145" Properties=species:S:1:pos:R:3:initial_magmoms:R:1 pbc="T T T"
Si      -2.31720363       0.00070047      -0.13134829       0.00000000
Si       0.72532854      -1.34628705      -1.83884161       0.00000000
Si       1.40688585       0.14760369       1.93840431       0.00000000
Si       0.59450355       2.19941064      -0.80615445       0.00000000
Si      -0.77421483      -2.63122596       1.02772282       0.00000000
Si       3.02531364      -1.30357467       1.01679436       0.00000000
Si      -2.59757082       0.09208737      -2.48268956       0.00000000
Si       2.92369662      -1.86512355      -1.29479768       0.00000000
Si      -3.02560686      -2.18310435       0.43241512       0.00000000
Si       2.38679451       3.07012743       0.43193248       0.00000000
