10
Lattice="16.28999089631971 0.0 0.0 0.0 16.28999089631971 0.0 0.0 0.0 34.474598006748145" Properties=species:S:1:pos:R:3:initial_magmoms:R:1 pbc="T T T"
Si      -2.12758803       0.50808510       0.86765717       0.00000000
Si       1.24263378      -1.15544970       1.67308765       0.00000000
Si       1.05233400       2.17311273      -0.46923402       0.00000000
Si      -0.41467824      -2.10219192      -1.36967654       0.00000000
Si       3.02433624       1.74326199       0.81160144       0.00000000
Si      -3.54744072      -0.49365216      -0.68128739       0.00000000
Si      -0.48195594      -2.19001131       2.91286384       0.00000000
Si      -2.14457850      -0.57852306       2.96947116       0.00000000
Si       2.46508425       0.46576368       2.77820598       0.00000000
Si       2.60552034      -2.71225242       0.50370863       0.00000000
