10
Lattice="16.28999089631971 0.0 0.0 0.0 16.28999089631971 0.0 0.0 0.0 34.474598006748145" Properties=species:S:1:pos:R:3:initial_magmoms:R:1 pbc="T T T"
Si       0.74464848      -2.10838914      -0.66029234       0.00000000
Si      -1.66438188       0.27094847       1.65805672       0.00000000
Si       1.41237558       1.69280809       0.86300309       0.00000000
Si       0.32915574      -0.24302124      -2.55943006       0.00000000
Si      -2.21726448      -0.29801628      -2.06489168       0.00000000
Si      -3.63638412       0.70079922       0.37722126       0.00000000
Si       2.43178749      -2.68968150       1.05595753       0.00000000
Si      -1.18236078       2.21816059       2.87673444       0.00000000
Si       0.03932406       3.58495675       1.32789331       0.00000000
Si       2.59035435       0.70891327      -2.86111744       0.00000000
