10
Lattice="16.28999089631971 0.0 0.0 0.0 16.28999089631971 0.0 0.0 0.0 34.474598006748145" Properties=species:S:1:pos:R:3:initial_magmoms:R:1 pbc="T T T"
Si      -0.04109967      -1.78174644       1.61203310       0.00000000
Si      -1.61328015       0.37035315      -1.74582909       0.00000000
Si       1.72874367      -0.69104949      -1.54018800       0.00000000
Si       0.42608124       2.13744348       1.30014124       0.00000000
Si       3.35277915       0.64534464      -0.42200379       0.00000000
Si       2.19928032       2.70813105      -0.37298088       0.00000000
Si      -1.37037996       1.48312305       3.00015357       0.00000000
Si      -1.44699183      -0.91366375       3.26891768       0.00000000
Si      -0.39159531       1.73714931      -3.29467022       0.00000000
Si       2.22382935      -1.91566442       2.51950845       0.00000000
