10
Lattice="16.28999089631971 0.0 0.0 0.0 16.28999089631971 0.0 0.0 0.0 34.474598006748145" Properties=species:S:1:pos:R:3:initial_magmoms:R:1 pbc="T T T"
Si       1.40589216      -0.86808270      -1.65688458       0.00000000
Si      -2.20353201      -0.66495454      -0.55204205       0.00000000
Si       0.07661187       2.39678680      -0.26876412       0.00000000
Si       0.07887618      -1.03402290       2.19744658       0.00000000
Si       0.08276949       2.54844670       2.08992025       0.00000000
Si      -3.25873305       1.18894846       0.44817002       0.00000000
Si      -2.11266639       1.52175316       2.55736158       0.00000000
Si       1.44699183       0.91366375      -3.26891768       0.00000000
Si      -2.19758616       2.91677989      -0.69476696       0.00000000
Si       0.24278616      -2.78127382      -2.54605391       0.00000000
