10
Lattice="16.28999089631971 0.0 0.0 0.0 16.28999089631971 0.0 0.0 0.0 34.474598006748145" Properties=species:S:1:pos:R:3:initial_magmoms:R:1 pbc="T T T"
Si       0.39521169      -0.89236620      -2.09340218       0.00000000
Si       1.28609550       1.93995981      -0.28889729       0.00000000
Si       1.51909137      -1.17429723       1.43169638       0.00000000
Si      -2.10833325      -0.23485293       1.28928174       0.00000000
Si      -0.45677160      -0.91887003       2.97440103       0.00000000
Si       2.89985688       0.92633085       1.23308811       0.00000000
Si      -1.63486440      -0.11376936      -3.01990752       0.00000000
Si       1.44752940      -3.21696875       0.22949753       0.00000000
Si       0.45168912      -3.20106482      -1.93433630       0.00000000
Si       0.23692176       3.95250786       0.41679812       0.00000000
