10
Lattice="16.28999089631971 0.0 0.0 0.0 16.28999089631971 0.0 0.0 0.0 34.474598006748145" Properties=species:S:1:pos:R:3:initial_magmoms:R:1 pbc="T T T"
Si      -0.07156197      -2.04267152      -1.20219885       0.00000000
Si      -1.51909137       1.17429723      -1.43169638       0.00000000
Si      -1.97586297       0.25542720       1.54270465       0.00000000
Si       1.38076551       2.10062808      -0.19860827       0.00000000
Si       2.35539132      -1.32251994      -1.07078161       0.00000000
Si      -0.62871255       1.54825047       2.94337184       0.00000000
Si      -0.23299587       3.11425704      -1.72059367       0.00000000
Si       0.49316346       3.20148999       1.68882191       0.00000000
Si      -1.12387968       0.28193103      -3.52509857       0.00000000
Si      -3.62742462       0.93944430      -0.14241464       0.00000000
