10
Lattice="16.28999089631971 0.0 0.0 0.0 16.28999089631971 0.0 0.0 0.0 34.474598006748145" Properties=species:S:1:pos:R:3:initial_magmoms:R:1 pbc="T T T"
Si       1.73782764       1.16186796       1.03752878       0.00000000
Si       0.88760205      -1.10086191      -1.88743018       0.00000000
Si      -1.12187601      -1.65323952       1.25454994       0.00000000
Si      -1.90195524       1.64274876      -0.29208279       0.00000000
Si      -0.72615933      -0.08723295      -3.40941558       0.00000000
Si       0.29812329       2.40337773       2.57639640       0.00000000
Si      -2.45702070      -0.30604023       2.58886932       0.00000000
Si      -0.49316346      -3.20148999      -1.68882191       0.00000000
Si      -1.77533307       1.92531510      -2.70372016       0.00000000
Si      -2.46902643      -2.94606279      -0.14611726       0.00000000
