10
Lattice="16.28999089631971 0.0 0.0 0.0 16.28999089631971 0.0 0.0 0.0 34.474598006748145" Properties=species:S:1:pos:R:3:initial_magmoms:R:1 pbc="T T T"
Si      -1.35723393       1.35663120      -1.35802412       0.00000000
Si       1.35697329       1.35891180       1.35609355       0.00000000
Si       1.35764118      -1.35767376      -1.35771385       0.00000000
Si      -1.35892809      -1.35887922       1.35736911       0.00000000
Si      -0.00068418       2.71458189       2.71194577       0.00000000
Si      -2.71368594       0.00026064       2.71515191       0.00000000
Si      -2.71502172       2.71414206      -0.00031027       0.00000000
Si       2.71476798      -0.00091224      -2.71484164       0.00000000
Si       2.71505317       2.71467963      -0.00020685       0.00000000
Si      -2.71472850       0.00006516      -2.71504848       0.00000000
