10
Lattice="16.28999089631971 0.0 0.0 0.0 16.28999089631971 0.0 0.0 0.0 34.474598006748145" Properties=species:S:1:pos:R:3:initial_magmoms:R:1 pbc="T T T"
Si      -1.41400458       1.90814544      -0.06784605       0.00000000
Si      -0.70726293      -0.44053047       2.22726712       0.00000000
Si      -0.78407028      -1.98614196      -1.30165812       0.00000000
Si       1.99925541       0.68224149      -1.34071787       0.00000000
Si      -1.98612567      -0.65353851      -2.77486194       0.00000000
Si       0.73941939       2.05434819      -2.77448272       0.00000000
Si       1.04733297       0.55675962       3.38875145       0.00000000
Si      -3.26275668       0.81047637      -1.36209213       0.00000000
Si      -2.53658106      -2.75923278       0.16978749       0.00000000
Si      -0.43965081       3.53830203      -1.36181633       0.00000000
