10
Lattice="16.28999089631971 0.0 0.0 0.0 16.28999089631971 0.0 0.0 0.0 34.474598006748145" Properties=species:S:1:pos:R:3:initial_magmoms:R:1 pbc="T T T"
Si       1.90096155      -0.21696651       1.44086663       0.00000000
Si       1.77319908       0.57068757      -1.67312213       0.00000000
Si      -0.88086546       2.33992818       0.19271311       0.00000000
Si      -0.42608124      -2.13744348      -1.30014124       0.00000000
Si      -1.79646120      -0.65432043       1.70001233       0.00000000
Si       2.87534205       1.92956679       1.16424230       0.00000000
Si       2.92669791      -1.49209884      -1.72214503       0.00000000
Si       3.02105122      -2.10292497       0.57565716       0.00000000
Si      -0.71641791       2.68670970       2.52109429       0.00000000
Si      -0.46718091      -3.91918992       0.31189186       0.00000000
