10
Lattice="16.28999089631971 0.0 0.0 0.0 16.28999089631971 0.0 0.0 0.0 34.474598006748145" Properties=species:S:1:pos:R:3:initial_magmoms:R:1 pbc="T T T"
Si      -0.39890952       2.27553381      -0.20615821       0.00000000
Si      -1.29389841      -0.87317658       1.76899604       0.00000000
Si      -0.16444755      -0.34678152      -2.32838118       0.00000000
Si       2.37223125       0.19222200       0.44813555       0.00000000
Si       0.79552215       2.07024723      -2.69729406       0.00000000
Si      -0.29729250       2.83708269       2.10543383       0.00000000
Si      -1.08004329      -3.34103013      -0.82108196       0.00000000
Si      -0.99092070       0.85362858       3.36396420       0.00000000
Si      -1.07388567      -3.18937023       1.53760240       0.00000000
Si       0.71641791      -2.68670970      -2.52109429       0.00000000
