10
Lattice="16.28999089631971 0.0 0.0 0.0 16.28999089631971 0.0 0.0 0.0 34.474598006748145" Properties=species:S:1:pos:R:3:initial_magmoms:R:1 pbc="T T T"
Si       1.35889159       1.34842104      -1.35457666       0.00000000
Si       1.25983602      -1.37210670       1.43376486       0.00000000
Si      -1.35472527      -1.36712196      -1.35723121       0.00000000
Si      -1.17907020       1.48395384       1.41266639       0.00000000
Si      -2.15342397      -0.14620275       2.70663668       0.00000000
Si       2.36249702       0.46991763       2.55887847       0.00000000
Si      -0.73941939      -2.05434819       2.77448272       0.00000000
Si       0.71112366       2.28206610       2.71832357       0.00000000
Si      -2.69923671       2.71792134       0.02423566       0.00000000
Si       0.00293220       2.70562239      -2.71387635       0.00000000
