10
Lattice="16.28999089631971 0.0 0.0 0.0 16.28999089631971 0.0 0.0 0.0 34.474598006748145" Properties=species:S:1:pos:R:3:initial_magmoms:R:1 pbc="T T T"
Si       1.35565874       1.35814917      -1.35726568       0.00000000
Si       1.35709831      -1.35775521       1.35716226       0.00000000
Si      -1.35801585      -1.35773892      -1.35671409       0.00000000
Si      -1.35742941       1.35782698       1.35764490       0.00000000
Si      -0.00089595       2.71415576      -2.71301448       0.00000000
Si      -0.00087966      -2.71435383       2.71322133       0.00000000
Si      -0.00022806       2.71372408       2.71466926       0.00000000
Si       2.71473080      -2.71467963       0.00034475       0.00000000
Si       2.71481714      -0.00083079       2.71470374       0.00000000
Si      -2.71511946      -2.71464705       0.00013790       0.00000000
