10
Lattice="16.28999089631971 0.0 0.0 0.0 16.28999089631971 0.0 0.0 0.0 34.474598006748145" Properties=species:S:1:pos:R:3:initial_magmoms:R:1 pbc="T T T"
Si      -1.44034781       1.69204230      -0.79098562       0.00000000
Si      -0.17186764      -0.64526319       2.32796748       0.00000000
Si      -1.27401062      -2.00414241      -0.50939694       0.00000000
Si       2.35721676       0.28119798      -0.71900262       0.00000000
Si       2.87797548      -1.60769268       0.55948856       0.00000000
Si       2.12154933      -0.80757675       2.72542534       0.00000000
Si      -2.19477029      -1.56429612      -2.60507445       0.00000000
Si      -2.57273087       0.79358364      -2.63985934       0.00000000
Si      -2.96810546       2.18212695       0.98752541       0.00000000
Si      -1.14624815      -2.79179649       2.60459181       0.00000000
