10
Lattice="16.28999089631971 0.0 0.0 0.0 16.28999089631971 0.0 0.0 0.0 34.474598006748145" Properties=species:S:1:pos:R:3:initial_magmoms:R:1 pbc="T T T"
Si      -1.34475579      -1.35567009      -1.38253558       0.00000000
Si       1.36384767       1.37036846      -1.37777808       0.00000000
Si       1.51417295      -1.24900317       1.37960523       0.00000000
Si      -1.78406451       0.97322976       1.32610063       0.00000000
Si       2.54497108       0.36398376       2.80850917       0.00000000
Si      -2.69633709      -2.69456148       0.00017237       0.00000000
Si       2.73167566      -2.69871543      -0.02561464       0.00000000
Si       2.71287700       2.72618919      -0.00892893       0.00000000
Si      -2.70842427       0.00734679      -2.73418190       0.00000000
Si       0.00583182      -2.70686043      -2.73793963       0.00000000
