10
Lattice="16.28999089631971 0.0 0.0 0.0 16.28999089631971 0.0 0.0 0.0 34.474598006748145" Properties=species:S:1:pos:R:3:initial_magmoms:R:1 pbc="T T T"
Si      -0.74464848       2.10838914       0.66029234       0.00000000
Si      -1.75148451      -1.58262237      -0.34457380       0.00000000
Si       1.68713901      -0.58129236       1.71624987       0.00000000
Si      -0.41549274       1.86536790      -1.89913772       0.00000000
Si       1.01625165      -2.84363127       2.19141352       0.00000000
Si      -2.96191296       1.81037286      -1.40459933       0.00000000
Si      -3.20217417      -0.49620969      -1.99780407       0.00000000
Si      -0.91544913      -3.72057084      -0.89675374       0.00000000
Si       3.76287338      -1.08281259       0.61395846       0.00000000
Si       1.84570587       2.81730241      -2.20082509       0.00000000
