10
Lattice="16.28999089631971 0.0 0.0 0.0 16.28999089631971 0.0 0.0 0.0 34.474598006748145" Properties=species:S:1:pos:R:3:initial_magmoms:R:1 pbc="T T T"
Si       0.49819707      -1.16375760      -1.97391316       0.00000000
Si       1.10930013      -1.09195128       1.77547726       0.00000000
Si      -2.26417968       0.46240794       0.53404630       0.00000000
Si       1.07434179       2.13894216       0.01423802       0.00000000
Si       2.88279473      -0.82635912      -1.93275047       0.00000000
Si      -0.31570020       3.26494836       1.63664798       0.00000000
Si      -2.45555460      -0.35499168       2.76648461       0.00000000
Si      -2.40614703       2.76977422       0.65860309       0.00000000
Si      -0.24070104      -0.57590037       3.68595713       0.00000000
Si       0.65717118      -3.39571566       1.48151220       0.00000000
