10
Lattice="16.28999089631971 0.0 0.0 0.0 16.28999089631971 0.0 0.0 0.0 34.474598006748145" Properties=species:S:1:pos:R:3:initial_magmoms:R:1 pbc="T T T"
Si      -0.78853374      -2.10512412      -0.72596649       0.00000000
Si       0.19137492       0.81739962      -2.23243832       0.00000000
Si       2.21485356      -0.22090869       0.91947252       0.00000000
Si      -1.76046030      -0.70472169       1.69646144       0.00000000
Si      -0.86001426      -3.06546849       1.58752165       0.00000000
Si       2.45555460       0.35499168      -2.76648461       0.00000000
Si       0.04940757       3.12476590      -2.10788152       0.00000000
Si       3.56485473      -0.73695960      -0.99100735       0.00000000
Si       2.13081345      -2.21298021       2.22771529       0.00000000
Si      -1.60091604      -0.05331717      -3.47052525       0.00000000
