10
Lattice="16.28999089631971 0.0 0.0 0.0 16.28999089631971 0.0 0.0 0.0 34.474598006748145" Properties=species:S:1:pos:R:3:initial_magmoms:R:1 pbc="T T T"
Si      -1.39154460      -1.46225556      -1.25035442       0.00000000
Si      -1.23519318       1.38474774       1.51415277       0.00000000
Si       0.98877368       1.76860530      -1.36832656       0.00000000
Si       1.47553517      -1.31170338       1.48071239       0.00000000
Si      -2.50188729       2.82305700       0.21241535       0.00000000
Si      -0.69851846       3.52390167      -1.19938653       0.00000000
Si      -2.59156374       0.05178591       2.87268712       0.00000000
Si       2.81473607       2.67126678       0.00434035       0.00000000
Si       0.11782231      -2.65904928       2.87230790       0.00000000
Si       2.87267960      -2.71858923       0.00220638       0.00000000
