10
Lattice="16.28999089631971 0.0 0.0 0.0 16.28999089631971 0.0 0.0 0.0 34.474598006748145" Properties=species:S:1:pos:R:3:initial_magmoms:R:1 pbc="T T T"
Si      -1.35889159      -1.34842104       1.35457666       0.00000000
Si      -1.35595939       1.35720135      -1.35929968       0.00000000
Si       1.36069526      -1.35518139      -1.35726568       0.00000000
Si       1.36988445       1.36534635       1.35302530       0.00000000
Si      -2.53796179       0.13553280       2.76724305       0.00000000
Si      -2.70654700       2.70839169      -0.00389563       0.00000000
Si      -2.71159690      -0.00070047      -2.71563455       0.00000000
Si       2.71426720       2.71355562      -0.00051712       0.00000000
Si       0.00201858       2.71379997      -2.71535875       0.00000000
Si      -2.71361686      -2.71554300      -0.00265455       0.00000000
