10
Lattice="16.28999089631971 0.0 0.0 0.0 16.28999089631971 0.0 0.0 0.0 34.474598006748145" Properties=species:S:1:pos:R:3:initial_magmoms:R:1 pbc="T T T"
Si       0.77502444      -1.12739832       1.84818423       0.00000000
Si       1.43920032      -1.05393042      -1.53636132       0.00000000
Si      -2.33161606      -0.48164643      -0.18306022       0.00000000
Si       0.19478116       2.37413718       0.38373696       0.00000000
Si      -2.55184057       0.61331850       1.96119203       0.00000000
Si      -0.31288692      -0.86187132      -3.26691816       0.00000000
Si      -1.00786556      -0.59805477       3.26116090       0.00000000
Si       1.29630444      -3.15385803       0.83342387       0.00000000
Si      -2.36747035      -2.82937752       0.33743755       0.00000000
Si      -1.88095321       2.87565741       1.48602838       0.00000000
