10
Lattice="16.28999089631971 0.0 0.0 0.0 16.28999089631971 0.0 0.0 0.0 34.474598006748145" Properties=species:S:1:pos:R:3:initial_magmoms:R:1 pbc="T T T"
Si       0.99463808       1.70279370       1.20209543       0.00000000
Si       1.78289000      -0.52934355      -1.41297666       0.00000000
Si      -0.84101265      -1.87447401       1.13690393       0.00000000
Si      -1.54397502       1.21137327      -1.29996887       0.00000000
Si       1.00786556       0.59805477      -3.26116090       0.00000000
Si      -1.97339571      -2.77293267      -0.71196980       0.00000000
Si       1.33644626       0.62612244       3.22782394       0.00000000
Si      -1.32375051       0.11640834      -3.44422111       0.00000000
Si       3.70304117       0.25933680      -0.37173980       0.00000000
Si      -3.66260355       0.71467488      -0.40511123       0.00000000
