10
Lattice="16.28999089631971 0.0 0.0 0.0 16.28999089631971 0.0 0.0 0.0 34.474598006748145" Properties=species:S:1:pos:R:3:initial_magmoms:R:1 pbc="T T T"
Si       1.34019459       1.38017025       1.34426875       0.00000000
Si      -1.35566194       1.35666378      -1.35978233       0.00000000
Si       1.35788553      -1.35800282      -1.36016155       0.00000000
Si      -1.36513621      -1.35467477       1.36809071       0.00000000
Si       0.02233359      -2.59051106       2.81636938       0.00000000
Si      -2.71416554      -2.71049549      -0.00075844       0.00000000
Si       2.71207323      -2.71385603       0.00148241       0.00000000
Si      -2.71339991       2.71308321       0.00527462       0.00000000
Si       2.71212210       2.71515204      -0.00172373       0.00000000
Si      -2.71386824      -0.00091224      -2.71628957       0.00000000
