10
Lattice="16.28999089631971 0.0 0.0 0.0 16.28999089631971 0.0 0.0 0.0 34.26581377546328" Properties=species:S:1:pos:R:3:initial_magmoms:R:1 pbc="T T T"
Si       1.32263397       1.51856424      -1.23600286       0.00000000
Si       1.47040056      -0.24573465       1.88815019       0.00000000
Si      -1.77945444       1.53693285       0.58813876       0.00000000
Si      -0.85792914      -1.99086606      -1.16195439       0.00000000
Si      -1.50175881      -1.15272927       2.79485840       0.00000000
Si       2.59880886      -2.22972633      -0.10742339       0.00000000
Si      -2.81514983       1.37009213      -1.51520087       0.00000000
Si       1.47367485       3.33051398       0.29663932       0.00000000
Si      -1.55382165       0.38185389      -3.29222696       0.00000000
Si      -3.09183548      -1.93272705      -0.38555915       0.00000000
