10
Lattice="16.28999089631971 0.0 0.0 0.0 16.28999089631971 0.0 0.0 0.0 34.26581377546328" Properties=species:S:1:pos:R:3:initial_magmoms:R:1 pbc="T T T"
Si      -1.35804843      -1.35698433      -1.35733817       0.00000000
Si       1.35731538      -1.35758563       1.35795496       0.00000000
Si      -1.35811359       1.35770634       1.35757803       0.00000000
Si       1.35725022       1.35782037      -1.35846895       0.00000000
Si      -0.00092853       2.71438641       2.71436796       0.00000000
Si       2.71476108      -2.71421441       0.00013706       0.00000000
Si      -2.71366965      -0.00266016      -2.71546446       0.00000000
Si       2.71495656       2.71463076       0.00013706       0.00000000
Si      -2.71529865       2.71503801       0.00034266       0.00000000
Si      -0.00053757      -2.71561535       2.71481341       0.00000000
