10
Lattice="16.28999089631971 0.0 0.0 0.0 16.28999089631971 0.0 0.0 0.0 34.26581377546328" Properties=species:S:1:pos:R:3:initial_magmoms:R:1 pbc="T T T"
Si       1.04422158       1.51117052       1.45040418       0.00000000
Si      -1.68490565      -0.99396825       1.34842906       0.00000000
Si       1.31709537      -1.38334812      -1.41860548       0.00000000
Si      -1.38621873       1.33362092      -1.44961606       0.00000000
Si      -3.35382497       0.76102742       0.95354960       0.00000000
Si      -0.88588278       2.16719488       2.78166605       0.00000000
Si       2.49404787       2.74651615       0.02172454       0.00000000
Si      -2.65519344       2.77308514      -0.13206052       0.00000000
Si       2.66090634      -0.02342311      -2.80044373       0.00000000
Si       2.75046876      -2.72113179       0.11533879       0.00000000
