10
Lattice="16.28999089631971 0.0 0.0 0.0 16.28999089631971 0.0 0.0 0.0 34.26581377546328" Properties=species:S:1:pos:R:3:initial_magmoms:R:1 pbc="T T T"
Si       2.02005774      -0.58048063      -1.09801435       0.00000000
Si      -1.10315880      -2.14859466      -0.03810361       0.00000000
Si      -1.09988451       1.42765397      -1.62961448       0.00000000
Si       0.87058647       0.80356452       2.15008991       0.00000000
Si       2.78759367       1.59778673       0.52879033       0.00000000
Si      -1.25092539      -0.38429576      -3.16225666       0.00000000
Si       1.02366360      -0.81775053      -3.20755609       0.00000000
Si      -2.57355936      -1.90286001      -1.92625380       0.00000000
Si      -2.26657431      -2.19603114       2.12299591       0.00000000
Si      -3.39928317       1.78851005      -1.34973116       0.00000000
