10
Lattice="16.28999089631971 0.0 0.0 0.0 16.28999089631971 0.0 0.0 0.0 34.26581377546328" Properties=species:S:1:pos:R:3:initial_magmoms:R:1 pbc="T T T"
Si      -1.35653346       1.35395964       1.35761230       0.00000000
Si      -1.35707103      -1.35808101      -1.35655006       0.00000000
Si       1.35855342       1.35725022      -1.35620740       0.00000000
Si       1.36205577      -1.35720135       1.35935986       0.00000000
Si      -0.01493793      -2.71948518       2.70210079       0.00000000
Si      -2.70183822      -0.00267156       2.72211203       0.00000000
Si       0.00057015       2.71454931      -2.71330571       0.00000000
Si      -2.71468615      -0.00008145      -2.71340851       0.00000000
Si      -2.71379020       2.71445157       0.00137063       0.00000000
Si       2.71510317       0.00014661      -2.71330571       0.00000000
