10
Lattice="16.28999089631971 0.0 0.0 0.0 16.28999089631971 0.0 0.0 0.0 34.26581377546328" Properties=species:S:1:pos:R:3:initial_magmoms:R:1 pbc="T T T"
Si      -1.62197901      -1.15716015      -1.30988000       0.00000000
Si       1.09905372       1.65903876      -1.35182137       0.00000000
Si       1.88253756      -1.90852011       0.10211218       0.00000000
Si      -1.72771740       1.43281953       1.57215068       0.00000000
Si       2.45596185       0.27513810      -2.68812033       0.00000000
Si      -0.27091899      -2.44957617      -2.70278610       0.00000000
Si       2.80735344       2.47129074       0.13353395       0.00000000
Si       1.60068798       2.51932995       2.38616981       0.00000000
Si      -1.12440096      -0.68075910       3.61024816       0.00000000
Si      -3.35215131      -2.03333409       0.02672735       0.00000000
