10
Lattice="16.28999089631971 0.0 0.0 0.0 16.28999089631971 0.0 0.0 0.0 34.26581377546328" Properties=species:S:1:pos:R:3:initial_magmoms:R:1 pbc="T T T"
Si      -1.68207282      -0.39591216      -1.64873482       0.00000000
Si       0.67298877      -1.75925484       1.68581045       0.00000000
Si      -1.86584031      -1.51449759       0.85996961       0.00000000
Si       0.96730020       2.19955725      -1.41630967       0.00000000
Si       1.61562591       0.46872846       2.29104786       0.00000000
Si       0.21287772       0.51645816      -2.94977423       0.00000000
Si       0.88011612       2.70943425       1.69454824       0.00000000
Si      -2.39332680       0.38898891       2.34296059       0.00000000
Si      -1.33980363       2.54920581       2.54896678       0.00000000
Si       2.62350450      -3.16491894       0.63813261       0.00000000
