10
Lattice="16.28999089631971 0.0 0.0 0.0 16.28999089631971 0.0 0.0 0.0 34.26581377546328" Properties=species:S:1:pos:R:3:initial_magmoms:R:1 pbc="T T T"
Si       1.93010436      -0.65602436      -1.33126187       0.00000000
Si      -2.39449058      -0.47991969       0.25017485       0.00000000
Si       0.32285151       1.40183595       2.37547887       0.00000000
Si      -0.90723408       2.29622211      -1.51444702       0.00000000
Si       1.84164966      -0.43645797       2.23820994       0.00000000
Si      -2.46794219      -1.40616746      -1.82811645       0.00000000
Si      -1.76931066       0.60589026      -2.91372657       0.00000000
Si      -0.79902287      -3.16116314      -1.43323699       0.00000000
Si       0.88588278      -2.16719488      -2.78166605       0.00000000
Si      -0.80377303      -3.51279908       1.07680380       0.00000000
