10
Lattice="16.28999089631971 0.0 0.0 0.0 16.28999089631971 0.0 0.0 0.0 34.26581377546328" Properties=species:S:1:pos:R:3:initial_magmoms:R:1 pbc="T T T"
Si      -2.09166858       0.94835493      -0.44638101       0.00000000
Si       1.05629247       2.02764888       0.53687707       0.00000000
Si       0.32796657      -1.80862983       1.48278539       0.00000000
Si       0.82510479      -1.13041197      -1.94760141       0.00000000
Si       2.96495919      -1.64827107      -1.12683192       0.00000000
Si       2.62205469      -2.12149557       1.19190273       0.00000000
Si      -0.70806114      -3.52927737       0.27981479       0.00000000
Si      -1.95154200       1.98219978      -2.53926955       0.00000000
Si      -0.54291312       3.28028472       1.78141212       0.00000000
Si      -3.71112264      -0.73425546      -0.32388065       0.00000000
