10
Lattice="16.28999089631971 0.0 0.0 0.0 16.28999089631971 0.0 0.0 0.0 34.26581377546328" Properties=species:S:1:pos:R:3:initial_magmoms:R:1 pbc="T T T"
Si       1.83583413       1.40546862      -0.44148099       0.00000000
Si      -1.55877381       0.12947292      -1.81139473       0.00000000
Si       0.84458763      -2.23728489       0.19819358       0.00000000
Si      -0.88594794       0.75678453       2.14312225       0.00000000
Si      -3.15797940       1.38210876      -0.56685967       0.00000000
Si       1.60801848       1.28624211      -2.84080888       0.00000000
Si       0.68204601      -0.37989909       3.60322366       0.00000000
Si       0.90560997      -2.48676624       2.56805285       0.00000000
Si      -3.27484386       0.64374822       1.73076722       0.00000000
Si      -2.61506628      -1.89817596      -2.34827180       0.00000000
