10
Lattice="16.28999089631971 0.0 0.0 0.0 16.28999089631971 0.0 0.0 0.0 34.26581377546328" Properties=species:S:1:pos:R:3:initial_magmoms:R:1 pbc="T T T"
Si      -0.62382555      -2.20328766       0.53190852       0.00000000
Si       0.11686446       0.73836054      -2.29762690       0.00000000
Si       2.38889592       0.11303631       0.41235503       0.00000000
Si      -1.94228928       1.15069302       0.96598810       0.00000000
Si       2.43133137       2.37731373       1.13663194       0.00000000
Si       3.27484386      -0.64374822      -1.73076722       0.00000000
Si      -1.99759383       0.35754921      -3.26868633       0.00000000
Si      -3.83086880      -0.21540267       0.33474292       0.00000000
Si      -3.02815787      -2.38554018       0.56089742       0.00000000
Si      -0.35891757      -2.60312571       2.90868949       0.00000000
