10
Lattice="16.28999089631971 0.0 0.0 0.0 16.28999089631971 0.0 0.0 0.0 34.26581377546328" Properties=species:S:1:pos:R:3:initial_magmoms:R:1 pbc="T T T"
Si       1.62127854       1.06372071       1.25792580       0.00000000
Si      -1.16009235      -1.69033185       1.14587995       0.00000000
Si       1.09726182      -0.23226282      -2.06503217       0.00000000
Si      -1.81934865       1.61749926      -0.24973114       0.00000000
Si      -2.29772079       0.24203682      -2.27199780       0.00000000
Si      -0.60173631      -1.38939039      -3.10308132       0.00000000
Si       0.23076414       2.41095258       2.57839051       0.00000000
Si      -2.48297067      -0.32353569       2.57808212       0.00000000
Si       2.74693383       2.67297723       0.03220200       0.00000000
Si       1.80094095       1.96416675      -2.76809853       0.00000000
