10
Lattice="16.28999089631971 0.0 0.0 0.0 16.28999089631971 0.0 0.0 0.0 34.26581377546328" Properties=species:S:1:pos:R:3:initial_magmoms:R:1 pbc="T T T"
Si       1.35654975      -1.35710361      -1.35709831       0.00000000
Si       1.35796698       1.35650088       1.35668712       0.00000000
Si      -1.35855342      -1.35725022       1.35620740       0.00000000
Si      -1.35798327       1.35729909      -1.35709831       0.00000000
Si       2.71362078       0.00078192      -2.71460782       0.00000000
Si       2.71386513      -2.71459818       0.00034266       0.00000000
Si      -2.71508688      -0.00329058       2.71381970       0.00000000
Si      -0.00234576       2.71407690      -2.71495047       0.00000000
Si      -2.71546155      -0.00011403      -2.71368264       0.00000000
Si       2.71437012       2.71482624      -0.00017133       0.00000000
