10
Lattice="16.28999089631971 0.0 0.0 0.0 16.28999089631971 0.0 0.0 0.0 34.26581377546328" Properties=species:S:1:pos:R:3:initial_magmoms:R:1 pbc="T T T"
Si       1.35741312      -1.35715248       1.35754377       0.00000000
Si       1.35778779       1.35738054      -1.35733817       0.00000000
Si      -1.35746199       1.35821133       1.35785216       0.00000000
Si      -1.35930276      -1.35790182      -1.35723538       0.00000000
Si      -2.71428867       0.00076563      -2.71306585       0.00000000
Si       2.71448415      -2.71430496       0.00078811       0.00000000
Si       2.71204065       0.00161271      -2.71700642       0.00000000
Si       2.71554300       0.00061902       2.71378544       0.00000000
Si      -0.00016290       2.71495656       2.71464208       0.00000000
Si      -2.71494027      -2.71467963       0.00061678       0.00000000
