10
Lattice="16.28999089631971 0.0 0.0 0.0 16.28999089631971 0.0 0.0 0.0 34.26581377546328" Properties=species:S:1:pos:R:3:initial_magmoms:R:1 pbc="T T T"
Si      -1.43495352      -1.50690645       1.10671787       0.00000000
Si       1.27117386      -1.37331216      -1.53209392       0.00000000
Si      -1.43337339       1.33778367      -1.53394428       0.00000000
Si       1.66809600       1.19912319       1.55892407       0.00000000
Si       2.68351686      -2.77747758      -0.10375694       0.00000000
Si      -2.75046876       2.72113179      -0.11533879       0.00000000
Si       2.77707033       2.76320528       0.04166725       0.00000000
Si       2.62541043      -0.01571985      -2.91797553       0.00000000
Si      -2.82651048      -2.74411566      -0.25267625       0.00000000
Si      -0.08956242       2.69770868      -2.91578252       0.00000000
