10
Lattice="16.28999089631971 0.0 0.0 0.0 16.28999089631971 0.0 0.0 0.0 34.26581377546328" Properties=species:S:1:pos:R:3:initial_magmoms:R:1 pbc="T T T"
Si      -1.87476723      -1.05686262      -0.81316248       0.00000000
Si      -0.68261616       1.32250365       1.79768839       0.00000000
Si       1.14192900      -1.93083741       0.80696037       0.00000000
Si       1.06862400       2.74146039      -0.53410154       0.00000000
Si       1.58827500       2.09815200       1.63074525       0.00000000
Si      -0.96373269      -0.85903686      -2.93778119       0.00000000
Si      -1.37052657      -3.27552804      -0.01853782       0.00000000
Si       3.33801648      -1.29917637       0.48482727       0.00000000
Si       2.13931683       1.84699278      -2.48557499       0.00000000
Si       3.56325831       0.69242274       1.69656992       0.00000000
