10
Lattice="16.28999089631971 0.0 0.0 0.0 16.28999089631971 0.0 0.0 0.0 34.26581377546328" Properties=species:S:1:pos:R:3:initial_magmoms:R:1 pbc="T T T"
Si      -0.19015317       0.98932821      -2.15597194       0.00000000
Si      -2.16243234       0.21665700       0.97428043       0.00000000
Si       1.18894194       1.49229336       1.46986717       0.00000000
Si       0.54002979      -2.40396417       0.05845751       0.00000000
Si       0.60639525       0.52223526       3.51474928       0.00000000
Si      -2.79308340       2.38005764       0.25850144       0.00000000
Si      -1.67400927      -0.08949726       3.32628720       0.00000000
Si      -0.21525606      -0.80570340      -3.64259510       0.00000000
Si      -2.04162570       2.50881380      -2.03350585       0.00000000
Si       3.50717184       1.13768124       1.34089057       0.00000000
