10
Lattice="16.28999089631971 0.0 0.0 0.0 16.28999089631971 0.0 0.0 0.0 34.26581377546328" Properties=species:S:1:pos:R:3:initial_magmoms:R:1 pbc="T T T"
Si       1.73776833      -0.69240645      -1.47031262       0.00000000
Si       0.57606327      -0.65013390       2.22063157       0.00000000
Si      -1.88270046      -1.40235723      -0.51515253       0.00000000
Si      -0.54002979       2.40396417      -0.05845751       0.00000000
Si       3.73684455       0.24418710      -0.71228387       0.00000000
Si       1.21969746       0.19253151      -3.63522795       0.00000000
Si      -2.70246213       2.62062117       0.91582292       0.00000000
Si      -2.70625770      -2.35071216       1.54867858       0.00000000
Si      -1.36433637      -1.54329831       3.32340887       0.00000000
Si      -3.65884803      -0.25071939      -1.53486945       0.00000000
