10
Lattice="16.28999089631971 0.0 0.0 0.0 16.28999089631971 0.0 0.0 0.0 34.26581377546328" Properties=species:S:1:pos:R:3:initial_magmoms:R:1 pbc="T T T"
Si       0.92545119      -1.79815536      -1.12573541       0.00000000
Si       0.07574850       2.05960986      -1.18131459       0.00000000
Si      -2.28253851      -0.50143878       0.43264041       0.00000000
Si       1.64716335       0.20385306       1.80207442       0.00000000
Si      -1.27762470       3.06577704       0.46437057       0.00000000
Si      -3.17166300       1.68977799       0.57227368       0.00000000
Si       1.43628930      -3.31231086       0.68675582       0.00000000
Si       2.35615302       2.67134238      -0.99285251       0.00000000
Si      -2.47577049      -0.68294196       2.70254624       0.00000000
Si       2.86585083      -0.90499095      -2.22851271       0.00000000
