10
Lattice="16.28999089631971 0.0 0.0 0.0 16.28999089631971 0.0 0.0 0.0 34.26581377546328" Properties=species:S:1:pos:R:3:initial_magmoms:R:1 pbc="T T T"
Si      -1.47040056       0.24573465      -1.88815019       0.00000000
Si       1.10315880       2.14859466       0.03810361       0.00000000
Si      -1.16341551      -0.04743648       2.16109952       0.00000000
Si       1.12840830      -1.98399168      -1.99557358       0.00000000
Si      -2.97215937      -0.90699462       0.90670821       0.00000000
Si      -0.14776659       1.76429889      -3.12415305       0.00000000
Si       3.12321654       1.56811403      -1.05991074       0.00000000
Si       0.46607319      -1.19360088       3.58526292       0.00000000
Si       1.86870735      -2.63800260       2.08993967       0.00000000
Si       0.00327429       3.57624863      -1.59151088       0.00000000
