10
Lattice="16.28999089631971 0.0 0.0 0.0 16.28999089631971 0.0 0.0 0.0 34.26581377546328" Properties=species:S:1:pos:R:3:initial_magmoms:R:1 pbc="T T T"
Si       0.48878145       1.83523466      -1.50217985       0.00000000
Si       0.25479189       1.04209085       2.17108317       0.00000000
Si      -1.96481835      -0.73505986      -1.30138207       0.00000000
Si       1.81398924      -1.92237054      -0.10396254       0.00000000
Si       1.96358031       0.56614429      -2.89392092       0.00000000
Si      -0.76427793      -2.15232018      -2.88394956       0.00000000
Si       3.41746281      -0.80010357      -1.51924423       0.00000000
Si      -3.07379268      -2.29914195       0.21587475       0.00000000
Si       2.02670406       3.25577153      -0.30541137       0.00000000
Si       0.67396617      -3.49776015      -1.52911279       0.00000000
