10
Lattice="16.28999089631971 0.0 0.0 0.0 16.28999089631971 0.0 0.0 0.0 34.26581377546328" Properties=species:S:1:pos:R:3:initial_magmoms:R:1 pbc="T T T"
Si       0.87860115       0.15552715       2.17450976       0.00000000
Si       1.36085031      -0.42403100      -1.89466070       0.00000000
Si      -1.40626683       1.86991770      -0.49044687       0.00000000
Si      -0.75303783      -2.20923581       0.56723660       0.00000000
Si       2.67897195      -2.18638094      -1.06758629       0.00000000
Si       1.16335035      -3.52045049       0.15495010       0.00000000
Si       2.44139859      -1.61080637       2.33041930       0.00000000
Si       2.53462626       1.96389471       2.09491023       0.00000000
Si      -3.49791912       1.08703007      -1.17908731       0.00000000
Si      -0.08886195      -1.20635825      -3.71020159       0.00000000
