10
Lattice="16.28999089631971 0.0 0.0 0.0 16.28999089631971 0.0 0.0 0.0 34.26581377546328" Properties=species:S:1:pos:R:3:initial_magmoms:R:1 pbc="T T T"
Si      -2.09165229      -0.78288763      -0.68864044       0.00000000
Si       1.40626683      -1.86991770       0.49044687       0.00000000
Si       0.71467488       1.77855849      -1.45153495       0.00000000
Si      -0.63741141       1.12409145       2.23073999       0.00000000
Si      -1.48344885       2.73202848      -1.23918958       0.00000000
Si      -3.29450589       1.26402255      -0.83502408       0.00000000
Si      -2.68947900      -2.34478979       0.95659926       0.00000000
Si       1.33608951       2.52066573       2.57216475       0.00000000
Si       2.76711714      -2.29394870      -1.40421383       0.00000000
Si       2.28486798      -1.71439055       2.66495662       0.00000000
