10
Lattice="16.28999089631971 0.0 0.0 0.0 16.28999089631971 0.0 0.0 0.0 34.26581377546328" Properties=species:S:1:pos:R:3:initial_magmoms:R:1 pbc="T T T"
Si      -0.87860115      -0.15552715      -2.17450976       0.00000000
Si       1.56279744      -1.76633352       0.15590954       0.00000000
Si       1.65602511       1.80836756      -0.07959953       0.00000000
Si      -1.36897902       0.15371081       2.10666341       0.00000000
Si      -1.63163898      -2.36476296      -1.60727316       0.00000000
Si      -2.64416022      -2.40486894       0.54595752       0.00000000
Si       1.30539915       2.53700297       2.22450361       0.00000000
Si       0.27199413       1.04268055       3.66429364       0.00000000
Si      -2.28486798       1.71439055      -2.66495662       0.00000000
Si       3.24900792      -1.86883020      -1.44392793       0.00000000
