10
Lattice="16.28999089631971 0.0 0.0 0.0 16.28999089631971 0.0 0.0 0.0 34.26581377546328" Properties=species:S:1:pos:R:3:initial_magmoms:R:1 pbc="T T T"
Si      -1.36448298      -1.34491869       1.39237156       0.00000000
Si       1.35053874       1.36798533       1.38945897       0.00000000
Si      -1.40406768       1.34651511      -1.39554800       0.00000000
Si       1.46051253      -1.49727906      -1.53097000       0.00000000
Si      -2.71456560      -2.70283680       0.01354528       0.00000000
Si       2.71464705      -2.70811476       0.03175072       0.00000000
Si       2.72238480       2.71036278       0.01779082       0.00000000
Si      -2.72694600       2.71331127       0.03665416       0.00000000
Si      -0.00858483      -2.70154989       2.75118317       0.00000000
Si       2.70749574       0.01264104       2.75341045       0.00000000
