10
Lattice="16.28999089631971 0.0 0.0 0.0 16.28999089631971 0.0 0.0 0.0 34.26581377546328" Properties=species:S:1:pos:R:3:initial_magmoms:R:1 pbc="T T T"
Si       2.24417556      -0.62638308      -0.23557760       0.00000000
Si       0.06102234      -0.24948135       2.36985927       0.00000000
Si      -0.83759922      -1.78238664      -1.35456264       0.00000000
Si      -0.84458763       2.23728489      -0.19819358       0.00000000
Si       2.25914607      -1.20295134       2.15751390       0.00000000
Si      -3.13168734      -1.46952090      -1.06367999       0.00000000
Si      -1.75003470      -1.71748728       2.77402477       0.00000000
Si       3.40213392       1.09998225      -1.36038783       0.00000000
Si       0.99124650       3.64275351      -0.63967457       0.00000000
Si      -0.16254162       1.85738580       3.40503008       0.00000000
