10
Lattice="16.28999089631971 0.0 0.0 0.0 16.28999089631971 0.0 0.0 0.0 34.26581377546328" Properties=species:S:1:pos:R:3:initial_magmoms:R:1 pbc="T T T"
Si      -0.02427210       2.32797132       0.15313401       0.00000000
Si       0.48922128      -0.59865750       2.26360092       0.00000000
Si       1.83962970      -0.46535643      -1.47356788       0.00000000
Si      -2.35608786      -0.64971036      -0.26367558       0.00000000
Si      -1.41289686       0.58824819       3.04417660       0.00000000
Si      -0.70921773       2.78467776       2.34111024       0.00000000
Si      -2.13252390      -2.75657751      -1.29884640       0.00000000
Si       0.98411148       0.34626024      -3.57334385       0.00000000
Si       2.20763709      -2.81409750      -1.09856260       0.00000000
Si      -3.11189499      -0.56887938       2.00612745       0.00000000
