10
Lattice="16.28999089631971 0.0 0.0 0.0 16.28999089631971 0.0 0.0 0.0 34.26581377546328" Properties=species:S:1:pos:R:3:initial_magmoms:R:1 pbc="T T T"
Si      -0.22356396       2.10686715       1.03517081       0.00000000
Si      -1.81105704      -1.46800593       0.40416550       0.00000000
Si      -0.06102234       0.24948135      -2.36985927       0.00000000
Si       2.19812373      -0.95346999      -0.21234537       0.00000000
Si       1.48344885      -2.73202848       1.23918958       0.00000000
Si       2.18315322      -0.37690173      -2.60543687       0.00000000
Si      -0.60820344      -3.51491611       0.55054914       0.00000000
Si      -0.90560997       2.48676624      -2.56805285       0.00000000
Si       2.13252390       2.75657751       1.29884640       0.00000000
Si      -1.79155791       3.24355077      -0.42493059       0.00000000
