10
Lattice="16.28999089631971 0.0 0.0 0.0 16.28999089631971 0.0 0.0 0.0 34.26581377546328" Properties=species:S:1:pos:R:3:initial_magmoms:R:1 pbc="T T T"
Si      -1.35790182       1.35725022      -1.35737244       0.00000000
Si      -1.35912357      -1.35697329       1.35661859       0.00000000
Si       1.35881406       1.35795069       1.35607034       0.00000000
Si       1.35773892      -1.35799956      -1.35788643       0.00000000
Si      -2.71288773      -0.00180819       2.71354558       0.00000000
Si      -0.00193851       2.71399545       2.71481341       0.00000000
Si      -2.71497285       2.71440270      -0.00061678       0.00000000
Si       2.71164969       0.00237834       2.71779454       0.00000000
Si       2.71456560       2.71524978      -0.00034266       0.00000000
Si       0.00131949      -2.71585251      -2.71457355       0.00000000
