10
Lattice="16.28999089631971 0.0 0.0 0.0 16.28999089631971 0.0 0.0 0.0 34.26581377546328" Properties=species:S:1:pos:R:3:initial_magmoms:R:1 pbc="T T T"
Si       1.67630616       0.89565678      -1.57365838       0.00000000
Si      -0.96642054      -1.79939340      -1.48720568       0.00000000
Si      -1.69906329       1.84585248      -0.41458231       0.00000000
Si       0.15693786       0.45926397       2.67455106       0.00000000
Si       2.80228725       2.42519004      -0.21546356       0.00000000
Si      -2.18852892      -0.49950027      -3.10218865       0.00000000
Si       0.52491267       2.22870006      -3.11901318       0.00000000
Si      -3.49324389       0.82062504      -1.65466281       0.00000000
Si      -2.83628448      -2.78705610      -0.09121565       0.00000000
Si      -0.76090590       3.59860761      -1.73696934       0.00000000
