10
Lattice="16.28999089631971 0.0 0.0 0.0 16.28999089631971 0.0 0.0 0.0 34.26581377546328" Properties=species:S:1:pos:R:3:initial_magmoms:R:1 pbc="T T T"
Si       0.93815739       1.75275513      -1.32238702       0.00000000
Si      -1.17983583       1.37832948       1.56742200       0.00000000
Si      -1.79418060      -1.02522744      -1.24008049       0.00000000
Si       1.69906329      -1.84585248       0.41458231       0.00000000
Si       2.22397596       0.38284758      -2.70443086       0.00000000
Si      -0.48946563      -2.34535275      -2.68760634       0.00000000
Si       3.37536945      -0.95019570      -1.15907606       0.00000000
Si      -1.61090181      -0.19479582       3.39300278       0.00000000
Si       1.85600115      -1.38658851       3.08913337       0.00000000
Si       0.73264275      -3.64524588      -1.07262337       0.00000000
