10
Lattice="16.28999089631971 0.0 0.0 0.0 16.28999089631971 0.0 0.0 0.0 34.26581377546328" Properties=species:S:1:pos:R:3:initial_magmoms:R:1 pbc="T T T"
Si      -1.38741930       1.79449011      -0.84657167       0.00000000
Si       0.19416051       0.62498214       2.35457671       0.00000000
Si       2.07948366       0.60269742      -1.15044107       0.00000000
Si      -1.00092276      -2.13374565      -0.80534987       0.00000000
Si      -0.78384222      -1.19871594       3.42809099       0.00000000
Si       2.63557539      -1.85543100       1.97011406       0.00000000
Si      -3.58350678       1.16282907      -0.52443857       0.00000000
Si       3.69932868      -0.87992064      -0.10170099       0.00000000
Si       2.36830536       2.94508539      -0.52567214       0.00000000
Si      -0.64410660       2.90115126       2.53008631       0.00000000
