10
Lattice="16.28999089631971 0.0 0.0 0.0 16.28999089631971 0.0 0.0 0.0 34.26581377546328" Properties=species:S:1:pos:R:3:initial_magmoms:R:1 pbc="T T T"
Si      -0.97800273      -1.82369808       1.07351428       0.00000000
Si       2.15055693      -0.56198871       0.97976296       0.00000000
Si      -0.83826711       2.27616912       0.17550960       0.00000000
Si      -0.19416051      -0.62498214      -2.35457671       0.00000000
Si       2.44141488      -2.48041314      -0.38446265       0.00000000
Si       1.16080911       3.21276267       0.93353835       0.00000000
Si       0.59030073      -3.54670767       0.70786358       0.00000000
Si      -1.58157981       1.16950797      -3.20114838       0.00000000
Si      -3.14761896      -2.10981564       0.07476805       0.00000000
Si      -0.75018708      -1.70447157       3.47284217       0.00000000
