10
Lattice="16.28999089631971 0.0 0.0 0.0 16.28999089631971 0.0 0.0 0.0 34.26581377546328" Properties=species:S:1:pos:R:3:initial_magmoms:R:1 pbc="T T T"
Si       1.01294478      -1.74524544      -1.19063490       0.00000000
Si      -2.27167308      -0.56988936      -0.13785145       0.00000000
Si       0.28010655       1.95023880      -1.30535691       0.00000000
Si       0.52610184      -0.27797256       2.34984802       0.00000000
Si      -0.17568765      -3.54203244      -0.32771843       0.00000000
Si      -2.79350694      -0.48728277       2.15956985       0.00000000
Si      -2.36209887      -2.75263533      -1.06275481       0.00000000
Si       2.77565310      -0.93709854       2.51651704       0.00000000
Si       3.36525336      -1.65187116      -0.94179642       0.00000000
Si      -0.49146930       3.83681628      -0.03378611       0.00000000
