10
Lattice="16.28999089631971 0.0 0.0 0.0 16.28999089631971 0.0 0.0 0.0 34.26581377546328" Properties=species:S:1:pos:R:3:initial_magmoms:R:1 pbc="T T T"
Si      -1.33913574      -1.34605899      -1.36485952       0.00000000
Si      -1.35361755       1.35886533       1.35935986       0.00000000
Si       1.36091547      -1.35705474       1.35836615       0.00000000
Si       1.37192751       1.35255870      -1.38885931       0.00000000
Si       0.08518041      -2.63379978      -2.78528795       0.00000000
Si      -2.70847314       2.71454835       0.00140490       0.00000000
Si      -2.71189404       0.00123804       2.71618404       0.00000000
Si      -2.71498914      -2.71350675      -0.00078811       0.00000000
Si       0.00263898      -2.71388142       2.71669803       0.00000000
Si      -2.61912249       0.04132773      -2.80902389       0.00000000
