10
Lattice="16.28999089631971 0.0 0.0 0.0 16.28999089631971 0.0 0.0 0.0 34.26581377546328" Properties=species:S:1:pos:R:3:initial_magmoms:R:1 pbc="T T T"
Si      -1.24014697       1.38323277       1.45234362       0.00000000
Si      -1.68877357      -0.91960308      -1.47946644       0.00000000
Si       1.11251089       1.80921627      -1.18682454       0.00000000
Si       1.48488400      -1.33459083       1.41462722       0.00000000
Si      -2.51638702       2.67778278      -0.03994025       0.00000000
Si      -0.69699860       3.32749314      -1.44883278       0.00000000
Si      -2.62495987      -2.60858286      -0.03931319       0.00000000
Si      -3.48503929       0.88661583      -1.28562462       0.00000000
Si      -2.59373194       0.02753010       2.81018550       0.00000000
Si       0.12351567      -2.68993512       2.80220156       0.00000000
