10
Lattice="16.28999089631971 0.0 0.0 0.0 16.28999089631971 0.0 0.0 0.0 34.26581377546328" Properties=species:S:1:pos:R:3:initial_magmoms:R:1 pbc="T T T"
Si      -0.03974760      -1.17128358       2.02826318       0.00000000
Si      -1.49496588       1.83600747      -0.08206667       0.00000000
Si       2.13514659       0.82621251      -0.68236980       0.00000000
Si      -0.98526807      -1.74032586      -1.31772687       0.00000000
Si      -2.20395555      -0.63148185       2.71286026       0.00000000
Si       1.40581071       2.45145345      -2.25592538       0.00000000
Si      -0.91241919       2.80606557      -2.12694878       0.00000000
Si       2.90672244      -1.06036497      -1.95394059       0.00000000
Si       0.35494281      -3.58049313      -0.78643513       0.00000000
Si      -0.16689105      -3.49788654       1.51098617       0.00000000
