10
Lattice="16.28999089631971 0.0 0.0 0.0 16.28999089631971 0.0 0.0 0.0 34.26581377546328" Properties=species:S:1:pos:R:3:initial_magmoms:R:1 pbc="T T T"
Si      -1.17121842      -2.03035302      -0.32703311       0.00000000
Si       1.01252124       0.04010598      -2.15323068       0.00000000
Si      -1.33379262       2.01173960      -0.14477314       0.00000000
Si      -0.51730524      -1.45077111       1.92674281       0.00000000
Si       0.18388152       0.65803455       3.08396064       0.00000000
Si       1.27518120       2.55857975       1.56070589       0.00000000
Si       2.64416022       2.40486894      -0.54595752       0.00000000
Si      -2.33018676       1.77446970      -2.25431488       0.00000000
Si      -3.32860086      -1.54036611      -1.08043598       0.00000000
Si      -0.49819707      -0.95451255      -3.72003589       0.00000000
