10
Lattice="16.28999089631971 0.0 0.0 0.0 16.28999089631971 0.0 0.0 0.0 34.26581377546328" Properties=species:S:1:pos:R:3:initial_magmoms:R:1 pbc="T T T"
Si       0.07345161       0.92624777       2.07829130       0.00000000
Si       0.69863153       2.01205772      -1.08561012       0.00000000
Si      -2.02634568      -0.78399765      -1.01440572       0.00000000
Si       1.66891932      -1.75499568       0.39487946       0.00000000
Si       1.96760624       0.57259350      -2.40316566       0.00000000
Si      -0.55346904      -1.27603710       3.00833454       0.00000000
Si      -0.76475034      -2.16117054      -2.40145237       0.00000000
Si       2.46794219       1.40616746       1.82811645       0.00000000
Si       3.35382497      -0.76102742      -0.95354960       0.00000000
Si       0.47504898      -3.50750646      -0.85359616       0.00000000
