10
Lattice="16.28999089631971 0.0 0.0 0.0 16.28999089631971 0.0 0.0 0.0 34.26581377546328" Properties=species:S:1:pos:R:3:initial_magmoms:R:1 pbc="T T T"
Si       1.20593241      -1.30065876       1.48401896       0.00000000
Si      -1.35106002       1.29241602       1.39290611       0.00000000
Si      -1.33957557      -1.35513252      -1.34822346       0.00000000
Si       1.37699370       1.36228383      -1.34274093       0.00000000
Si       2.15345655       0.54105606       2.80489829       0.00000000
Si       0.27091899       2.44957617       2.70278610       0.00000000
Si      -2.67433419      -2.71355399       0.01267836       0.00000000
Si      -2.69875127       0.00335574      -2.70172386       0.00000000
Si      -2.68690029       2.71681362       0.02001125       0.00000000
Si       0.01462842      -2.70858880      -2.70175813       0.00000000
