10
Lattice="16.28999089631971 0.0 0.0 0.0 16.28999089631971 0.0 0.0 0.0 34.26581377546328" Properties=species:S:1:pos:R:3:initial_magmoms:R:1 pbc="T T T"
Si      -1.92795408       0.23609097       1.26554001       0.00000000
Si       1.08600284       2.07045900       0.03340919       0.00000000
Si       0.84954372      -2.34857817       0.37490248       0.00000000
Si      -2.06164611       0.77820588      -1.82914443       0.00000000
Si      -0.38380869      -0.33301647      -2.90868949       0.00000000
Si       1.22510152       1.43571915      -2.39178940       0.00000000
Si       1.57837787      -1.20133863       2.54132550       0.00000000
Si      -2.93211855      -1.63848078       0.31665056       0.00000000
Si      -1.30989519      -3.17969397      -0.41310888       0.00000000
Si       3.33795851       1.51511661       0.32593660       0.00000000
