10
Lattice="16.28999089631971 0.0 0.0 0.0 16.28999089631971 0.0 0.0 0.0 34.26581377546328" Properties=species:S:1:pos:R:3:initial_magmoms:R:1 pbc="T T T"
Si       1.27624005      -1.29455001       1.49228388       0.00000000
Si      -0.96865227      -1.79116695      -1.24568437       0.00000000
Si       1.81938842       0.64971036      -1.40889253       0.00000000
Si      -1.41996672       1.41780015       1.46118421       0.00000000
Si       2.48951340       2.56642434       0.05699093       0.00000000
Si       2.51638702      -2.67778278       0.03994025       0.00000000
Si      -2.71671588      -2.74395276      -0.00163105       0.00000000
Si       2.64005418       0.05812272       2.84683624       0.00000000
Si      -0.07734492      -2.65025268       2.85012576       0.00000000
Si       3.62889791      -0.86856651      -1.14688428       0.00000000
