10
Lattice="16.28999089631971 0.0 0.0 0.0 16.28999089631971 0.0 0.0 0.0 34.26581377546328" Properties=species:S:1:pos:R:3:initial_magmoms:R:1 pbc="T T T"
Si       1.34565174       1.36251189       1.38770798       0.00000000
Si      -1.37199267      -1.35578412       1.38136880       0.00000000
Si      -1.28987478       1.44140436      -1.39956739       0.00000000
Si       1.41996672      -1.41780015      -1.46118421       0.00000000
Si       2.69051226       2.70140328       0.00786744       0.00000000
Si       2.69620677      -2.71235016       0.03109967       0.00000000
Si      -2.71349046      -2.72960127       0.00990625       0.00000000
Si      -2.71419093       2.72914515       0.02086104       0.00000000
Si       2.69967266       0.00373041       2.74466923       0.00000000
Si      -0.01339038      -2.71280628       2.74525175       0.00000000
