10
Lattice="16.28999089631971 0.0 0.0 0.0 16.28999089631971 0.0 0.0 0.0 34.26581377546328" Properties=species:S:1:pos:R:3:initial_magmoms:R:1 pbc="T T T"
Si       1.35575154       1.35729909      -1.35641300       0.00000000
Si       1.35283563      -1.35557235       1.36172420       0.00000000
Si      -1.35881406      -1.35795069      -1.35607034       0.00000000
Si      -1.36075257       1.35604476       1.35874307       0.00000000
Si       2.71280628       2.71500543       0.00020559       0.00000000
Si       2.71412577      -0.00135207      -2.71402530       0.00000000
Si       0.00237834       2.71717200       2.71131830       0.00000000
Si      -0.00153126       2.71484253      -2.71375117       0.00000000
Si       2.71353933      -2.71551042       0.00133637       0.00000000
Si      -2.71565703       2.71422351      -0.00044546       0.00000000
