10
Lattice="16.28999089631971 0.0 0.0 0.0 16.28999089631971 0.0 0.0 0.0 34.26581377546328" Properties=species:S:1:pos:R:3:initial_magmoms:R:1 pbc="T T T"
Si      -1.18863243      -1.79678700       0.86291647       0.00000000
Si      -1.01294478       1.74524544       1.19063490       0.00000000
Si       2.35230858       0.09337428       0.24883848       0.00000000
Si      -0.47429964       0.13509297      -2.36519912       0.00000000
Si      -3.37504365      -1.00738989       0.12788009       0.00000000
Si       2.98224288       1.34394129      -1.55597721       0.00000000
Si      -3.28461786       1.17535608       1.05278345       0.00000000
Si       1.30360725       1.37645613      -3.15036641       0.00000000
Si      -0.96415623      -3.55016115      -0.59283318       0.00000000
Si      -0.73283823       3.69548424      -0.11472201       0.00000000
