10
Lattice="16.28999089631971 0.0 0.0 0.0 16.28999089631971 0.0 0.0 0.0 34.26581377546328" Properties=species:S:1:pos:R:3:initial_magmoms:R:1 pbc="T T T"
Si       1.31288325      -1.32144480       1.52028934       0.00000000
Si      -1.39426110      -1.27778760      -1.49437550       0.00000000
Si       1.88418515       0.91061100      -1.27370354       0.00000000
Si      -1.38075669       1.40491476       1.50928316       0.00000000
Si      -1.34873055       0.07418466      -3.38489004       0.00000000
Si       3.30513416      -1.02771981      -1.17299626       0.00000000
Si      -2.66750379      -2.58144372       0.11285452       0.00000000
Si       2.65960218       2.71433984       0.13984914       0.00000000
Si       2.53185111      -2.87422389       0.10822863       0.00000000
Si      -2.63953386       2.88319872       0.12349406       0.00000000
