10
Lattice="16.28999089631971 0.0 0.0 0.0 16.28999089631971 0.0 0.0 0.0 34.26581377546328" Properties=species:S:1:pos:R:3:initial_magmoms:R:1 pbc="T T T"
Si       1.36340784       1.33762077       1.35956545       0.00000000
Si      -1.35586557      -1.35277047       1.35469970       0.00000000
Si       1.35456237      -1.35493704      -1.35641300       0.00000000
Si      -1.36028016       1.35804843      -1.35685845       0.00000000
Si      -2.64168414       0.01713708       2.73674354       0.00000000
Si       2.71257822      -2.71125873       0.00544827       0.00000000
Si      -0.00249237      -2.71264338      -2.71303159       0.00000000
Si       2.71300029       0.00184077      -2.71310012       0.00000000
Si      -2.71370223       2.71383255       0.00414617       0.00000000
Si       2.71092013       2.71822940       0.00202168       0.00000000
