10
Lattice="16.28999089631971 0.0 0.0 0.0 16.28999089631971 0.0 0.0 0.0 34.26581377546328" Properties=species:S:1:pos:R:3:initial_magmoms:R:1 pbc="T T T"
Si      -1.28581857       1.36990755       1.38204384       0.00000000
Si       1.15139349      -1.33304328       1.54535480       0.00000000
Si       1.35586557       1.35277047      -1.35469970       0.00000000
Si      -1.36313091      -1.36112724      -1.35257522       0.00000000
Si      -2.22397596      -0.38284758       2.70443086       0.00000000
Si       2.27737458       0.19648998       2.90354962       0.00000000
Si       2.71927341       2.69039124       0.00486575       0.00000000
Si       2.71042794      -0.00216657      -2.71111270       0.00000000
Si      -0.00441459       2.71081890      -2.71155816       0.00000000
Si       2.69889462      -2.72448621       0.04588195       0.00000000
