10
Lattice="16.28999089631971 0.0 0.0 0.0 16.28999089631971 0.0 0.0 0.0 34.26581377546328" Properties=species:S:1:pos:R:3:initial_magmoms:R:1 pbc="T T T"
Si       0.96495444      -1.57012794      -1.62341237       0.00000000
Si      -1.45821564       1.17867924      -1.71976789       0.00000000
Si       1.61813457       1.80890676       0.88769067       0.00000000
Si      -1.39157325      -1.19366604       1.89137118       0.00000000
Si      -3.10831119       0.40711968       1.44050135       0.00000000
Si       0.40465989       2.71631093       2.64350621       0.00000000
Si      -1.94872383       2.58635745       2.04988492       0.00000000
Si       0.14525793       2.30094621      -3.13504959       0.00000000
Si       2.49150663      -2.98657602      -0.45864817       0.00000000
Si       2.64665259      -0.42256260      -2.97424003       0.00000000
