10
Lattice="16.28999089631971 0.0 0.0 0.0 16.28999089631971 0.0 0.0 0.0 34.26581377546328" Properties=species:S:1:pos:R:3:initial_magmoms:R:1 pbc="T T T"
Si       2.02637826      -1.08418095       0.18911313       0.00000000
Si      -0.28359261       1.63323770      -1.63657045       0.00000000
Si      -0.72381357       0.93226041       2.01911421       0.00000000
Si      -1.34648253      -1.92399561      -0.12668078       0.00000000
Si       1.70549784      -1.68083478       2.44507277       0.00000000
Si      -3.04468245       0.97275735       1.46808535       0.00000000
Si       0.92988207       0.72583353      -3.39238599       0.00000000
Si       3.54309033       0.76991427       0.27851269       0.00000000
Si      -0.18841014      -0.83188143       3.54092838       0.00000000
Si      -3.09316149      -1.38407985       1.42508173       0.00000000
