10
Lattice="16.28999089631971 0.0 0.0 0.0 16.28999089631971 0.0 0.0 0.0 34.26581377546328" Properties=species:S:1:pos:R:3:initial_magmoms:R:1 pbc="T T T"
Si       0.13903482      -0.18943641       2.34460535       0.00000000
Si       1.97230980       0.38351547      -1.25882390       0.00000000
Si      -0.51229706      -2.16912753      -0.81604081       0.00000000
Si      -1.48205705       1.88845083      -0.04142739       0.00000000
Si       1.36953744       2.50439202      -2.10601236       0.00000000
Si       0.94174575      -2.35957392       2.57075985       0.00000000
Si      -0.27601061      -3.58538013       1.02454840       0.00000000
Si      -0.85212275       3.13901784      -1.84624308       0.00000000
Si       2.02761435       1.17665928       2.97585053       0.00000000
Si      -2.05712663       0.26383284       3.28715562       0.00000000
