10
Lattice="16.28999089631971 0.0 0.0 0.0 16.28999089631971 0.0 0.0 0.0 34.26581377546328" Properties=species:S:1:pos:R:3:initial_magmoms:R:1 pbc="T T T"
Si       0.80271093      -2.17013751       0.22615450       0.00000000
Si      -0.13903482       0.18943641      -2.34460535       0.00000000
Si       1.88857952       1.36609569       0.63124517       0.00000000
Si      -2.19616146       0.45326925       0.94255027       0.00000000
Si      -1.62109188       2.07788724      -2.38603274       0.00000000
Si      -0.41504544      -3.39594372      -1.32005695       0.00000000
Si      -1.83124917      -0.06017526       3.22256452       0.00000000
Si      -2.21069214       2.79265986       1.07228071       0.00000000
Si       3.20704325      -1.98788499       0.19716560       0.00000000
Si      -0.65133189      -1.97969112      -3.16064616       0.00000000
