10
Lattice="16.28999089631971 0.0 0.0 0.0 16.28999089631971 0.0 0.0 0.0 34.26581377546328" Properties=species:S:1:pos:R:3:initial_magmoms:R:1 pbc="T T T"
Si       1.87476723       1.05686262       0.81316248       0.00000000
Si       0.91103454       0.19782576      -2.12461870       0.00000000
Si      -2.16200880       0.68022153       0.64169625       0.00000000
Si       0.50424066      -2.21866542       0.79462467       0.00000000
Si       3.01669623      -0.87397479       1.62012285       0.00000000
Si      -1.89420609      -2.28481911      -2.01935407       0.00000000
Si      -3.43840265      -0.88462845      -0.73113008       0.00000000
Si      -0.48052242      -1.03938345      -3.48401283       0.00000000
Si       1.19215107       2.37936627       2.61085087       0.00000000
Si      -2.09413651       3.08025981       0.51179448       0.00000000
