10
Lattice="16.28999089631971 0.0 0.0 0.0 16.28999089631971 0.0 0.0 0.0 34.26581377546328" Properties=species:S:1:pos:R:3:initial_magmoms:R:1 pbc="T T T"
Si       2.25100107      -0.62938044      -0.51463854       0.00000000
Si      -0.50424066       2.21866542      -0.79462467       0.00000000
Si      -1.07740431      -1.71589086      -1.32865767       0.00000000
Si      -0.01326006       0.00832419       2.52381566       0.00000000
Si       2.51245557       1.34469063       0.82549818       0.00000000
Si       1.37052657       3.27552804       0.01853782       0.00000000
Si      -0.86250663      -2.21907267       2.73129528       0.00000000
Si      -2.39844675      -0.06615369      -2.81397873       0.00000000
Si      -2.97536361      -2.29847013       0.01356927       0.00000000
Si       0.40679388       2.41649118      -2.91924337       0.00000000
