10
Lattice="16.28999089631971 0.0 0.0 0.0 16.28999089631971 0.0 0.0 0.0 34.26581377546328" Properties=species:S:1:pos:R:3:initial_magmoms:R:1 pbc="T T T"
Si      -2.22166019       0.63462582       0.25976928       0.00000000
Si       0.75101135       0.94661190      -2.00869739       0.00000000
Si       0.60277235      -2.12087655       0.84718845       0.00000000
Si       0.91272218       1.20624192       1.83688851       0.00000000
Si      -1.86929120       2.90377395       0.42431381       0.00000000
Si      -1.36953744      -2.50439202       2.10601236       0.00000000
Si       2.15784833      -0.81075330      -2.70991340       0.00000000
Si      -2.85159449      -0.61594119       2.06458497       0.00000000
Si       3.17893811       0.60562962       1.66528521       0.00000000
Si      -1.27407022       1.46219040      -3.13494679       0.00000000
