10
Lattice="16.28999089631971 0.0 0.0 0.0 16.28999089631971 0.0 0.0 0.0 34.26581377546328" Properties=species:S:1:pos:R:3:initial_magmoms:R:1 pbc="T T T"
Si       1.30797297       1.85714145       0.59344996       0.00000000
Si       1.20818043      -1.16517483       1.68046498       0.00000000
Si      -2.11730676       0.22918401       1.10579269       0.00000000
Si       0.02785590      -0.00356751      -2.42019578       0.00000000
Si      -3.13858520       2.04739236       0.10416813       0.00000000
Si       3.52496052       1.38349341       0.06421417       0.00000000
Si      -1.86072362      -1.36966320      -3.05144095       0.00000000
Si       3.47524344      -0.46564965       1.58715912       0.00000000
Si       0.21168855      -0.59093604       3.80040095       0.00000000
Si       0.48941676       3.85242210      -0.23376151       0.00000000
