10
Lattice="16.28999089631971 0.0 0.0 0.0 16.28999089631971 0.0 0.0 0.0 34.26581377546328" Properties=species:S:1:pos:R:3:initial_magmoms:R:1 pbc="T T T"
Si      -1.34486052      -1.33889139       1.37984055       0.00000000
Si       1.36875604       1.37500632       1.37658529       0.00000000
Si      -1.31288325       1.32144480      -1.52028934       0.00000000
Si       1.21896786      -1.55277909      -1.41206071       0.00000000
Si       1.99225091       0.29372499      -2.69328560       0.00000000
Si       0.57130190       2.23205580      -2.79399288       0.00000000
Si      -2.69051226      -2.70140328      -0.00786744       0.00000000
Si      -2.69363994       2.72635956      -0.01100619       0.00000000
Si       0.00916040      -2.69767287       2.73680180       0.00000000
Si      -2.70465198       0.01674612       2.73621928       0.00000000
