10
Lattice="16.28999089631971 0.0 0.0 0.0 16.28999089631971 0.0 0.0 0.0 34.26581377546328" Properties=species:S:1:pos:R:3:initial_magmoms:R:1 pbc="T T T"
Si      -1.35843792      -1.35677781       1.35668712       0.00000000
Si      -1.35763971       1.35754344      -1.35692698       0.00000000
Si       1.35765799      -1.35752715      -1.35744097       0.00000000
Si       1.35851158       1.35855342       1.35788643       0.00000000
Si      -2.71300029      -0.00184077       2.71310012       0.00000000
Si      -2.71500396       2.71438725       0.00013706       0.00000000
Si      -0.00068658      -2.71453302      -2.71501901       0.00000000
Si      -0.00149116       2.71425462      -2.71549873       0.00000000
Si      -2.71549266      -2.71448415       0.00006853       0.00000000
Si       2.71514441       2.71488466      -0.00027413       0.00000000
