10
Lattice="16.28999089631971 0.0 0.0 0.0 16.28999089631971 0.0 0.0 0.0 34.26581377546328" Properties=species:S:1:pos:R:3:initial_magmoms:R:1 pbc="T T T"
Si       1.34381097       1.35992501      -1.38183824       0.00000000
Si      -1.37404521      -1.35091341      -1.38276342       0.00000000
Si      -1.31709537       1.38334812       1.41860548       0.00000000
Si       1.43337339      -1.33778367       1.53394428       0.00000000
Si       2.70454725      -2.71109583       0.00185035       0.00000000
Si      -2.70331410       2.71696905      -0.03101058       0.00000000
Si       2.70306486       2.72654594       0.01401473       0.00000000
Si      -2.74507351      -2.69558775      -0.01171891       0.00000000
Si       2.70130554       0.00420282      -2.74507014       0.00000000
Si      -0.01387908      -2.71068858      -2.74373377       0.00000000
