10
Lattice="16.28999089631971 0.0 0.0 0.0 16.28999089631971 0.0 0.0 0.0 34.397273925272025" Properties=species:S:1:pos:R:3:initial_magmoms:R:1 pbc="T T T"
Si      -1.96209792      -0.58749885      -1.22688265       0.00000000
Si       1.83039327       0.26513604      -1.51169224       0.00000000
Si      -0.69537123       2.10916404       0.92944926       0.00000000
Si       0.55807911      -2.20620650       1.03002694       0.00000000
Si      -2.89732311       1.17398772       1.49012514       0.00000000
Si      -2.09899908       1.55668869      -2.27262916       0.00000000
Si      -0.69102180       3.18787155      -1.35394625       0.00000000
Si       3.55208337      -0.65836035      -0.15994741       0.00000000
Si       1.58358348       2.60229492      -1.96766276       0.00000000
Si      -3.51142353      -0.97733973       0.51114378       0.00000000
