10
Lattice="16.28999089631971 0.0 0.0 0.0 16.28999089631971 0.0 0.0 0.0 34.397273925272025" Properties=species:S:1:pos:R:3:initial_magmoms:R:1 pbc="T T T"
Si      -1.35702216      -1.35788553       1.35807393       0.00000000
Si       1.35845568       1.35677781       1.35824591       0.00000000
Si      -1.35873261       1.35891180      -1.35659484       0.00000000
Si       1.36057338      -1.35889551      -1.35982819       0.00000000
Si      -2.69474067      -0.01184283      -2.70195553       0.00000000
Si      -2.71166598       2.71523349       0.00030958       0.00000000
Si      -2.71331127      -0.00071676       2.71470317       0.00000000
Si       0.00065160       2.71357191       2.71487516       0.00000000
Si      -2.71453302      -2.71518462       0.00144469       0.00000000
Si       2.71533123       2.71471221       0.00134149       0.00000000
