10
Lattice="16.28999089631971 0.0 0.0 0.0 16.28999089631971 0.0 0.0 0.0 34.397273925272025" Properties=species:S:1:pos:R:3:initial_magmoms:R:1 pbc="T T T"
Si       1.25742510      -1.42025994      -1.38301197       0.00000000
Si       0.33301647      -0.77902038       2.23472334       0.00000000
Si      -1.81104075       1.21037958      -1.41183690       0.00000000
Si      -2.27913390       2.27722797       0.60202142       0.00000000
Si      -0.52129629       2.92938183       1.95906343       0.00000000
Si       2.36266902       0.14428053      -2.73310572       0.00000000
Si      -1.83702330      -0.80137026       3.06799777       0.00000000
Si      -0.46128393      -2.57885361      -2.64446390       0.00000000
Si      -3.36487869       0.31477167       1.59572483       0.00000000
Si       0.69483366      -3.19042908       1.83475162       0.00000000
