10
Lattice="16.28999089631971 0.0 0.0 0.0 16.28999089631971 0.0 0.0 0.0 34.397273925272025" Properties=species:S:1:pos:R:3:initial_magmoms:R:1 pbc="T T T"
Si       2.28247335      -0.45134703       0.10006173       0.00000000
Si       0.21405060       2.06975853      -1.09056618       0.00000000
Si      -0.60281145       0.16734717       2.28243239       0.00000000
Si      -1.33617096      -1.85388345      -0.75625889       0.00000000
Si       2.69351892      -0.39762261      -2.20029165       0.00000000
Si      -0.31317525      -3.43672085       0.61082713       0.00000000
Si      -0.35600166      -2.16981171       2.73840290       0.00000000
Si      -2.03040189       2.59520877      -1.42772845       0.00000000
Si       1.42951266       1.44518364      -3.02723698       0.00000000
Si      -3.50288757      -1.10169270      -0.19472308       0.00000000
