10
Lattice="16.28999089631971 0.0 0.0 0.0 16.28999089631971 0.0 0.0 0.0 34.397273925272025" Properties=species:S:1:pos:R:3:initial_magmoms:R:1 pbc="T T T"
Si      -0.84132963      -1.60621029       1.61808104       0.00000000
Si      -1.69842798       1.74871521       0.29589230       0.00000000
Si       1.79755263       0.98414406       1.51861439       0.00000000
Si      -0.39486960      -1.32628293      -2.28422105       0.00000000
Si      -2.72890080      -2.52097524       0.60738813       0.00000000
Si       0.39179079       2.35543626       2.97764781       0.00000000
Si      -2.31598188      -0.36942462       3.01337628       0.00000000
Si      -2.59682148      -2.26145925      -1.72354517       0.00000000
Si      -3.56002312       0.92132982       1.54111710       0.00000000
Si       3.27570723       2.37276882       0.23902679       0.00000000
