10
Lattice="16.28999089631971 0.0 0.0 0.0 16.28999089631971 0.0 0.0 0.0 34.397273925272025" Properties=species:S:1:pos:R:3:initial_magmoms:R:1 pbc="T T T"
Si       0.69537123      -2.10916404      -0.92944926       0.00000000
Si      -2.20195188      -0.93517632       0.56067588       0.00000000
Si       0.00434943       1.07870751      -2.28339551       0.00000000
Si       0.39486960       1.32628293       2.28422105       0.00000000
Si      -1.40362785      -0.55247535      -3.20207842       0.00000000
Si      -1.26672669      -2.69666289      -2.15633191       0.00000000
Si       2.27895471       0.49313088      -2.89711202       0.00000000
Si      -2.33403120      -1.19469231       2.89160918       0.00000000
Si      -0.44646003      -0.27992736       3.90230209       0.00000000
Si       2.52576450      -1.84402800      -2.44114150       0.00000000
