10
Lattice="16.28999089631971 0.0 0.0 0.0 16.28999089631971 0.0 0.0 0.0 34.397273925272025" Properties=species:S:1:pos:R:3:initial_magmoms:R:1 pbc="T T T"
Si      -1.83770748       1.37670048      -0.42177961       0.00000000
Si       0.96925500       0.27108189       2.13868610       0.00000000
Si       1.79903502       0.66859047      -1.52947564       0.00000000
Si      -1.55690046      -1.94165397      -0.14790836       0.00000000
Si      -2.09390031       0.79931772      -2.84754552       0.00000000
Si       2.24761275      -1.37857383      -2.57480938       0.00000000
Si      -3.27450177       0.96686037       1.45999311       0.00000000
Si       1.33740900       2.60172477       2.57797393       0.00000000
Si      -1.38381921       3.66283908       0.13136326       0.00000000
Si      -1.09876050      -3.38151078       1.67903507       0.00000000
