10
Lattice="16.28999089631971 0.0 0.0 0.0 16.28999089631971 0.0 0.0 0.0 34.397273925272025" Properties=species:S:1:pos:R:3:initial_magmoms:R:1 pbc="T T T"
Si       1.35422028      -1.35518139       1.35883067       0.00000000
Si       1.34366436       1.35923760      -1.36642559       0.00000000
Si      -1.36304946       1.35928647       1.35814272       0.00000000
Si      -1.35560493      -1.36199061      -1.38126114       0.00000000
Si      -2.50529286       0.23118768      -2.76298321       0.00000000
Si       2.70905958      -2.71339272       0.00065355       0.00000000
Si       2.71103067       0.00172674       2.71542551       0.00000000
Si      -0.00413766      -2.71313208       2.71539112       0.00000000
Si       2.71078632       2.71841004       0.00006879       0.00000000
Si      -0.00397476       2.71658556       2.71539112       0.00000000
