10
Lattice="16.28999089631971 0.0 0.0 0.0 16.28999089631971 0.0 0.0 0.0 34.397273925272025" Properties=species:S:1:pos:R:3:initial_magmoms:R:1 pbc="T T T"
Si      -1.54932561      -0.38984088       1.73802643       0.00000000
Si       1.96209792       0.58749885       1.22688265       0.00000000
Si       0.15858315      -1.37120912      -1.94805630       0.00000000
Si      -0.13690116       2.14418754      -1.04574651       0.00000000
Si      -0.93522519       1.76148657       2.71700779       0.00000000
Si       1.26672669       2.69666289       2.15633191       0.00000000
Si       2.52017703      -1.61870765       2.25690960       0.00000000
Si      -3.68459342      -0.27905747       0.67057523       0.00000000
Si       2.37734631      -2.18563649      -1.93787470       0.00000000
Si      -0.60997905       0.03122793      -3.72429812       0.00000000
