10
Lattice="16.28999089631971 0.0 0.0 0.0 16.28999089631971 0.0 0.0 0.0 34.397273925272025" Properties=species:S:1:pos:R:3:initial_magmoms:R:1 pbc="T T T"
Si      -0.58357296       0.41637240       2.16348655       0.00000000
Si      -0.70431444      -2.22026184      -0.74404785       0.00000000
Si       2.42621631      -0.30446010      -0.30273058       0.00000000
Si       1.14461685       0.61305786      -2.09957638       0.00000000
Si       0.13962159       2.43776333      -0.68894338       0.00000000
Si      -0.16325838      -1.18439703      -3.01158621       0.00000000
Si       0.34604847      -1.76998995       2.69843325       0.00000000
Si      -2.91709917       0.70964127       2.18543202       0.00000000
Si       3.01311243      -2.55904497      -0.17336236       0.00000000
Si      -3.91171770      -0.52646022       0.38511209       0.00000000
