10
Lattice="16.28999089631971 0.0 0.0 0.0 16.28999089631971 0.0 0.0 0.0 34.397273925272025" Properties=species:S:1:pos:R:3:initial_magmoms:R:1 pbc="T T T"
Si      -2.13687333       0.83222352      -0.62145590       0.00000000
Si       1.43133714       1.89021015      -0.33791901       0.00000000
Si       0.76128057      -1.94660613      -1.17287890       0.00000000
Si      -0.23439681      -0.85406841       2.28975901       0.00000000
Si      -0.12830004      -3.77189153      -0.01781780       0.00000000
Si       3.61074366       1.17636606       0.05262786       0.00000000
Si       0.99632898       3.37090599       1.45799806       0.00000000
Si      -3.53610288       0.52141032       1.31284149       0.00000000
Si       0.24179247      -3.20741045       2.20125478       0.00000000
Si      -2.30954733      -0.05996349       3.23021540       0.00000000
