10
Lattice="16.28999089631971 0.0 0.0 0.0 16.28999089631971 0.0 0.0 0.0 34.397273925272025" Properties=species:S:1:pos:R:3:initial_magmoms:R:1 pbc="T T T"
Si       2.25942300       0.04978224      -0.57515714       0.00000000
Si       0.28359261      -0.20403225       2.32157651       0.00000000
Si      -0.70897338       2.23213725      -0.34669032       0.00000000
Si      -1.45800387      -1.26739784      -1.42569901       0.00000000
Si      -3.30462198      -0.75323657       0.16407509       0.00000000
Si      -0.81003654       0.09125658      -3.37437446       0.00000000
Si      -0.29792781       2.28586167      -2.64704369       0.00000000
Si       3.07457460      -1.83117682       0.57071989       0.00000000
Si       1.72608840      -2.04824400       2.51660916       0.00000000
Si       1.22857551       1.82153151       3.06153108       0.00000000
