10
Lattice="16.28999089631971 0.0 0.0 0.0 16.28999089631971 0.0 0.0 0.0 34.397273925272025" Properties=species:S:1:pos:R:3:initial_magmoms:R:1 pbc="T T T"
Si      -1.23167061       1.43018055      -1.36235639       0.00000000
Si      -1.37528325      -1.33851672       1.35907145       0.00000000
Si       1.34534223       1.37295378       1.36068812       0.00000000
Si       1.27791792      -1.36800162      -1.51561009       0.00000000
Si      -2.54863566       0.03284064      -2.75867808       0.00000000
Si       2.69788464      -2.68949529      -0.02911043       0.00000000
Si      -0.01443294      -2.69799867       2.71810850       0.00000000
Si       2.70013266       0.01821222       2.71838368       0.00000000
Si      -2.72665278      -2.70278793      -0.01072164       0.00000000
Si       2.70746316       2.72495862      -0.00266923       0.00000000
