10
Lattice="16.28999089631971 0.0 0.0 0.0 16.28999089631971 0.0 0.0 0.0 34.397273925272025" Properties=species:S:1:pos:R:3:initial_magmoms:R:1 pbc="T T T"
Si       2.11929642      -0.73787184      -0.82694532       0.00000000
Si      -0.77555061       0.82613106      -2.18753026       0.00000000
Si       0.04952160       2.54031147      -0.13951542       0.00000000
Si      -0.11811879      -0.84585825       2.43113189       0.00000000
Si       1.97037324       1.57592718      -1.14305645       0.00000000
Si       2.32096662       2.09388402       2.00322956       0.00000000
Si      -2.40038037      -0.50199264       2.90148047       0.00000000
Si       1.38808719       0.63063477       3.68474123       0.00000000
Si      -1.76262687      -0.84888819      -3.57123017       0.00000000
Si       0.87084711       1.84989240      -3.52193885       0.00000000
