10
Lattice="16.28999089631971 0.0 0.0 0.0 16.28999089631971 0.0 0.0 0.0 34.397273925272025" Properties=species:S:1:pos:R:3:initial_magmoms:R:1 pbc="T T T"
Si      -2.28226158       0.34386561       0.47034859       0.00000000
Si      -0.01741401      -2.41280964       0.28787095       0.00000000
Si       1.50620598       1.47649302       1.25360935       0.00000000
Si       0.11811879       0.84585825      -2.43113189       0.00000000
Si      -2.34088929      -0.56076696       2.64769724       0.00000000
Si      -1.41664356      -2.72362284       2.22216833       0.00000000
Si       3.55079646      -1.35482301       0.57140783       0.00000000
Si       2.43908541       2.93974227      -0.42790233       0.00000000
Si       0.16628832       2.53117278       2.90794716       0.00000000
Si       3.11578830       0.12587283       2.36732491       0.00000000
