10
Lattice="16.28999089631971 0.0 0.0 0.0 16.28999089631971 0.0 0.0 0.0 34.397273925272025" Properties=species:S:1:pos:R:3:initial_magmoms:R:1 pbc="T T T"
Si      -2.28247335       0.45134703      -0.10006173       0.00000000
Si       0.41104557       0.05372442      -2.30035338       0.00000000
Si       0.70897338      -2.23213725       0.34669032       0.00000000
Si       1.08579366       2.15177868       0.72347827       0.00000000
Si       2.96523612       1.59089769      -0.75034255       0.00000000
Si      -2.06842275       2.52110556      -1.19062791       0.00000000
Si       0.89384859       1.65815910       3.03446041       0.00000000
Si      -2.88528480       0.61869420       2.18237066       0.00000000
Si       2.96839638      -2.18235501      -0.22846682       0.00000000
Si      -0.10106316      -2.14088067      -3.02768414       0.00000000
