10
Lattice="16.28999089631971 0.0 0.0 0.0 16.28999089631971 0.0 0.0 0.0 34.397273925272025" Properties=species:S:1:pos:R:3:initial_magmoms:R:1 pbc="T T T"
Si      -0.54406971       2.24683083       0.23448635       0.00000000
Si       2.25282555      -0.09796806      -0.65272303       0.00000000
Si      -1.52630784      -1.13743296      -1.50481278       0.00000000
Si       0.95120568       0.60388659       2.34063261       0.00000000
Si       3.04507341       1.21143843       1.14343482       0.00000000
Si      -0.36908253       3.32935020      -1.79626105       0.00000000
Si      -1.27949805      -3.47459184      -1.04884226       0.00000000
Si       2.44477062       0.39565152      -2.96370517       0.00000000
Si      -3.80091312      -0.55185633      -0.89109628       0.00000000
Si       3.29652585      -2.16673290      -0.27896205       0.00000000
