10
Lattice="16.28999089631971 0.0 0.0 0.0 16.28999089631971 0.0 0.0 0.0 34.397273925272025" Properties=species:S:1:pos:R:3:initial_magmoms:R:1 pbc="T T T"
Si      -1.33600806      -1.37075463      -1.34536069       0.00000000
Si      -1.35293337       1.35632169       1.35690442       0.00000000
Si       1.35873261      -1.35891180       1.35659484       0.00000000
Si       1.37176461       1.35410625      -1.38108916       0.00000000
Si       0.13864419      -2.60754030      -2.74065593       0.00000000
Si      -2.58004930      -0.08000019      -2.81761987       0.00000000
Si      -2.71268410      -0.00205254       2.71429040       0.00000000
Si       0.00206883       2.71285515       2.71446239       0.00000000
Si       2.71526607       2.71259451      -0.00027518       0.00000000
Si      -2.71046215      -2.71823085      -0.00261419       0.00000000
