10
Lattice="16.28999089631971 0.0 0.0 0.0 16.28999089631971 0.0 0.0 0.0 34.397273925272025" Properties=species:S:1:pos:R:3:initial_magmoms:R:1 pbc="T T T"
Si      -1.64639772      -1.02376134       1.33440859       0.00000000
Si      -1.39486383       1.28974446      -1.41445109       0.00000000
Si       1.33048575      -1.39978341      -1.39147370       0.00000000
Si       0.88679502       1.81685628       1.26430691       0.00000000
Si       1.09952613      -0.27396522       2.37888240       0.00000000
Si      -0.82132551       0.69041907       3.38242342       0.00000000
Si      -2.63347398      -2.69878059      -0.04929132       0.00000000
Si      -0.93757095       3.50876826       1.06005578       0.00000000
Si      -2.82095559       2.53084698      -0.03112955       0.00000000
Si       2.89318545      -2.51444295       0.07976732       0.00000000
