10
Lattice="16.28999089631971 0.0 0.0 0.0 16.28999089631971 0.0 0.0 0.0 34.397273925272025" Properties=species:S:1:pos:R:3:initial_magmoms:R:1 pbc="T T T"
Si      -2.01176613       1.20431970       0.42171081       0.00000000
Si       0.32076639      -2.30799978       0.49903593       0.00000000
Si       0.92857887       0.75101787      -2.08055467       0.00000000
Si       1.44515106       0.61892226       1.84101192       0.00000000
Si       2.20185414       2.45617362       0.22956753       0.00000000
Si      -3.26837673      -1.27260738      -0.40991254       0.00000000
Si       1.42759044      -1.37722176      -2.92879192       0.00000000
Si      -0.22962384       1.49218029       3.32647964       0.00000000
Si      -2.64267783       2.03304087      -1.65000376       0.00000000
Si      -1.77310134      -2.91555162       1.69623372       0.00000000
