10
Lattice="16.28999089631971 0.0 0.0 0.0 16.28999089631971 0.0 0.0 0.0 34.397273925272025" Properties=species:S:1:pos:R:3:initial_magmoms:R:1 pbc="T T T"
Si       1.32089094      -0.80107704       1.80248696       0.00000000
Si       1.28689371       1.56962295      -1.26090157       0.00000000
Si      -0.27833094      -2.06988885      -1.21745779       0.00000000
Si      -2.05829037       1.10895804       0.61588353       0.00000000
Si       0.91680120       1.00514187      -3.47997415       0.00000000
Si      -3.04008867      -0.40224897       2.16689188       0.00000000
Si       2.97460287      -2.19147741       0.86467916       0.00000000
Si       1.69518627      -2.31067134      -2.58763957       0.00000000
Si       2.88359064       0.84761757       2.44846812       0.00000000
Si       3.41482383      -1.36910934      -1.26072959       0.00000000
