10
Lattice="16.28999089631971 0.0 0.0 0.0 16.28999089631971 0.0 0.0 0.0 34.397273925272025" Properties=species:S:1:pos:R:3:initial_magmoms:R:1 pbc="T T T"
Si       0.82085310       1.47232278       1.61901179       0.00000000
Si      -0.92054790       1.29902976      -1.80895365       0.00000000
Si      -1.68705756      -0.87081453       1.50556952       0.00000000
Si       2.04740865      -1.34205165      -0.19283123       0.00000000
Si       2.21457663       2.53522899       0.06363499       0.00000000
Si      -2.16621162      -2.59390557      -0.00068795       0.00000000
Si       3.42520056       0.45426294       0.29880929       0.00000000
Si       0.91528623       2.93581901      -1.89068162       0.00000000
Si       1.29070557      -3.17930301       1.41861316       0.00000000
Si      -0.38406933      -2.30604498       2.90408088       0.00000000
