10
Lattice="16.28999089631971 0.0 0.0 0.0 16.28999089631971 0.0 0.0 0.0 34.397273925272025" Properties=species:S:1:pos:R:3:initial_magmoms:R:1 pbc="T T T"
Si       1.35843939       1.35563476       1.37267902       0.00000000
Si      -1.35821133      -1.36167801       1.36965206       0.00000000
Si       1.44542799      -1.26279771      -1.39911678       0.00000000
Si      -1.32613632       1.33606558      -1.45150042       0.00000000
Si      -2.69988831       2.70278192      -0.00128990       0.00000000
Si       2.69293152       2.71120385       0.00875067       0.00000000
Si      -2.71270854      -2.70547269       0.00520431       0.00000000
Si       0.00083079       2.70954227       2.72762279       0.00000000
Si       2.73201219      -2.70680847       0.00209823       0.00000000
Si      -2.71319724      -0.00271530       2.72793237       0.00000000
