10
Lattice="16.28999089631971 0.0 0.0 0.0 16.28999089631971 0.0 0.0 0.0 34.397273925272025" Properties=species:S:1:pos:R:3:initial_magmoms:R:1 pbc="T T T"
Si       1.35760860      -1.35390751      -1.35494377       0.00000000
Si      -1.35749457      -1.35595191       1.35717960       0.00000000
Si       1.35764118       1.35821133       1.35721400       0.00000000
Si      -1.35594702       1.35648459      -1.36068812       0.00000000
Si       2.69210073       0.00166158      -2.71887212       0.00000000
Si      -2.71402803      -2.71225757       0.00030958       0.00000000
Si      -0.00008145      -2.71435676       2.71453118       0.00000000
Si      -2.71507059       0.00114030       2.71463438       0.00000000
Si      -2.70071910      -0.00676035      -2.72891269       0.00000000
Si       2.71619460      -2.71357910      -0.00010319       0.00000000
