10
Lattice="16.28999089631971 0.0 0.0 0.0 16.28999089631971 0.0 0.0 0.0 34.397273925272025" Properties=species:S:1:pos:R:3:initial_magmoms:R:1 pbc="T T T"
Si      -0.49904415      -0.28121427       2.25488016       0.00000000
Si      -1.49335317      -1.03384485      -1.48479356       0.00000000
Si       2.15596521      -0.94092832       0.05059842       0.00000000
Si      -0.79514748       2.23928856      -0.24356723       0.00000000
Si       0.57598182       1.74130326       2.87293072       0.00000000
Si      -3.56850369      -0.23973993      -0.54433716       0.00000000
Si      -3.05639496       1.95486516       0.18299360       0.00000000
Si       3.06793058      -0.57270753      -2.10067709       0.00000000
Si      -1.01716389      -3.38718689      -1.57329779       0.00000000
Si       2.10439107      -3.27848372       0.44076691       0.00000000
