10
Lattice="16.28999089631971 0.0 0.0 0.0 16.28999089631971 0.0 0.0 0.0 34.397273925272025" Properties=species:S:1:pos:R:3:initial_magmoms:R:1 pbc="T T T"
Si      -1.35695700      -1.35746199      -1.35728279       0.00000000
Si      -1.35726651       1.35689184       1.35766116       0.00000000
Si       1.35783666      -1.35759231       1.35742038       0.00000000
Si       1.35760860       1.35874890      -1.35700761       0.00000000
Si       0.00281817       2.71349046      -2.71470317       0.00000000
Si       0.00133578      -2.71404432       2.71463438       0.00000000
Si      -2.71498914       2.71477737       0.00017199       0.00000000
Si       2.71485882       2.71524978       0.00020638       0.00000000
Si      -2.71480995      -2.71560816       0.00020638       0.00000000
Si       2.71510317      -2.71554300       0.00027518       0.00000000
