10
Lattice="16.28999089631971 0.0 0.0 0.0 16.28999089631971 0.0 0.0 0.0 34.397273925272025" Properties=species:S:1:pos:R:3:initial_magmoms:R:1 pbc="T T T"
Si       1.34456031       1.34739477      -1.37379349       0.00000000
Si      -1.36655181      -1.37266056      -1.37458463       0.00000000
Si      -1.33048575       1.39978341       1.39147370       0.00000000
Si       1.56269970      -1.11465954       1.47124102       0.00000000
Si       2.70555723       2.69887833      -0.00044716       0.00000000
Si       2.70528030      -2.70192456      -0.01327736       0.00000000
Si      -2.72534958       2.68952787      -0.02297739       0.00000000
Si      -2.70876636      -2.72495862      -0.01479084       0.00000000
Si       2.70578529      -0.01006722      -2.73296813       0.00000000
Si      -0.01078398       2.70655092      -2.73269295       0.00000000
