10
Lattice="16.28999089631971 0.0 0.0 0.0 16.28999089631971 0.0 0.0 0.0 34.397273925272025" Properties=species:S:1:pos:R:3:initial_magmoms:R:1 pbc="T T T"
Si       1.10229543       2.05974018       0.24814207       0.00000000
Si       1.07818623      -1.75073517       1.13992629       0.00000000
Si      -0.29294307      -1.25274987      -1.97657166       0.00000000
Si      -1.87944246       0.56088099       1.47382082       0.00000000
Si      -0.17231562       2.30744592       2.15313296       0.00000000
Si      -2.55419055      -1.53717327      -1.55001082       0.00000000
Si      -2.96523612      -1.59089769       0.75034255       0.00000000
Si       3.59123103       0.07076376      -1.12241807       0.00000000
Si       3.34619406      -1.71418041       0.46584254       0.00000000
Si       0.00316026      -3.77325270       0.52187573       0.00000000
