10
Lattice="16.28999089631971 0.0 0.0 0.0 16.28999089631971 0.0 0.0 0.0 34.397273925272025" Properties=species:S:1:pos:R:3:initial_magmoms:R:1 pbc="T T T"
Si       1.37003787       1.26534204       1.51282735       0.00000000
Si       1.14380235      -2.11190076      -0.23985233       0.00000000
Si      -1.81231137      -0.77410080       1.42418553       0.00000000
Si      -0.33083361       0.31156254       2.94430510       0.00000000
Si      -2.16290475      -1.29205764      -1.72210048       0.00000000
Si      -2.37563586       0.79876386      -2.83667597       0.00000000
Si       1.30873860       2.59333542      -2.54237273       0.00000000
Si       2.90215702      -2.20120254       1.39931628       0.00000000
Si       1.60800219      -2.49103422      -2.57601328       0.00000000
Si      -3.75363954       0.68279535       1.46656299       0.00000000
