10
Lattice="16.28999089631971 0.0 0.0 0.0 16.28999089631971 0.0 0.0 0.0 34.397273925272025" Properties=species:S:1:pos:R:3:initial_magmoms:R:1 pbc="T T T"
Si      -1.15101882       1.93184739       0.69162637       0.00000000
Si       1.07572644      -0.86004684       1.94145202       0.00000000
Si      -1.48147776      -1.08566334      -1.52011958       0.00000000
Si       1.70087148       0.95377950      -1.43147775       0.00000000
Si       0.33083361      -0.31156254      -2.94430510       0.00000000
Si      -2.41435719      -2.54891259       0.16139210       0.00000000
Si       0.56861874       2.87340939       2.01853635       0.00000000
Si      -0.65089953       3.45356145      -0.99387539       0.00000000
Si      -0.39151386      -0.17630667       3.71339418       0.00000000
Si       3.30959110      -0.03015279       1.74026225       0.00000000
