10
Lattice="16.28999089631971 0.0 0.0 0.0 16.28999089631971 0.0 0.0 0.0 34.397273925272025" Properties=species:S:1:pos:R:3:initial_magmoms:R:1 pbc="T T T"
Si       1.35677781      -1.35711576      -1.35762676       0.00000000
Si       1.35640314       1.35900783       1.35676683       0.00000000
Si      -1.35956992      -1.35659448       1.35748917       0.00000000
Si      -1.35916104       1.35854356      -1.35721400       0.00000000
Si       2.71379997      -2.71410534       0.00072234       0.00000000
Si      -0.00229689      -2.71441485      -2.71487516       0.00000000
Si       2.71450044       0.00088108      -2.71515033       0.00000000
Si      -2.71494746       0.00103041      -2.71477196       0.00000000
Si       2.71450044       2.71560319      -0.00017199       0.00000000
Si      -0.00125433       2.71620592      -2.71404962       0.00000000
