10
Lattice="16.28999089631971 0.0 0.0 0.0 16.28999089631971 0.0 0.0 0.0 34.397273925272025" Properties=species:S:1:pos:R:3:initial_magmoms:R:1 pbc="T T T"
Si       1.37779191       1.79631459       0.49164051       0.00000000
Si       0.81593352      -0.61501266      -2.19320581       0.00000000
Si      -2.04740865       1.34205165       0.19283123       0.00000000
Si      -0.75670308      -1.83725136       1.61144439       0.00000000
Si      -1.27327527      -1.70515575      -2.31012221       0.00000000
Si      -2.20185414      -2.45617362      -0.22956753       0.00000000
Si       0.64902618       1.36741518       2.94884554       0.00000000
Si      -1.22655555       2.81437443       1.81184302       0.00000000
Si       0.16716798       3.87728064       0.25646622       0.00000000
Si       3.83140867      -0.47213307      -0.69203914       0.00000000
