10
Lattice="16.28999089631971 0.0 0.0 0.0 16.28999089631971 0.0 0.0 0.0 34.397273925272025" Properties=species:S:1:pos:R:3:initial_magmoms:R:1 pbc="T T T"
Si       1.33915433       1.34306163       1.36944567       0.00000000
Si      -1.37283975      -1.37357280       1.36542119       0.00000000
Si       1.55542037      -1.14077241      -1.39580776       0.00000000
Si      -1.28658420       1.44401076      -1.40121501       0.00000000
Si      -0.17966241      -2.17605078      -2.58548733       0.00000000
Si      -2.26993005      -0.15196941      -2.84434110       0.00000000
Si       2.70343043       2.70912474      -0.02032192       0.00000000
Si       2.69766377      -0.01267362       2.72531817       0.00000000
Si      -0.01498680       2.70277164       2.72542137       0.00000000
Si      -2.73201219       2.70680847      -0.00209823       0.00000000
