10
Lattice="16.28999089631971 0.0 0.0 0.0 16.28999089631971 0.0 0.0 0.0 34.397273925272025" Properties=species:S:1:pos:R:3:initial_magmoms:R:1 pbc="T T T"
Si      -0.91993932      -1.53192789      -1.60721352       0.00000000
Si       1.64408128       0.94434759      -1.58193151       0.00000000
Si       1.61681182      -1.22678361       1.46284808       0.00000000
Si      -1.90763460      -0.96902694       1.58230988       0.00000000
Si      -1.42509222       2.39256117      -0.06435734       0.00000000
Si       1.63344391       1.33721352       2.69021230       0.00000000
Si      -2.85282927      -2.12222862      -0.33588957       0.00000000
Si      -2.25975924      -0.23620500      -2.99407798       0.00000000
Si       0.46371277       2.44959246      -3.00370923       0.00000000
Si       3.18728185       2.23282143      -0.31734943       0.00000000
