10
Lattice="16.28999089631971 0.0 0.0 0.0 16.28999089631971 0.0 0.0 0.0 34.397273925272025" Properties=species:S:1:pos:R:3:initial_magmoms:R:1 pbc="T T T"
Si       1.35414113      -1.35971001      -1.35597569       0.00000000
Si       1.35578642       1.35751316       1.35755797       0.00000000
Si      -1.35858600       1.35967158      -1.35484058       0.00000000
Si      -1.35832536      -1.35754344       1.35748917       0.00000000
Si       2.71265057      -2.71544526      -0.00010319       0.00000000
Si       0.01498680      -2.70277164      -2.72542137       0.00000000
Si       2.71369313       2.71517552       0.00072234       0.00000000
Si      -2.71505430      -2.71423980      -0.00099752       0.00000000
Si       2.71494746      -0.00103041       2.71477196       0.00000000
Si      -2.71619460       2.71357910       0.00010319       0.00000000
