10
Lattice="16.28999089631971 0.0 0.0 0.0 16.28999089631971 0.0 0.0 0.0 34.397273925272025" Properties=species:S:1:pos:R:3:initial_magmoms:R:1 pbc="T T T"
Si       1.34872498       1.35296595      -1.39794039       0.00000000
Si      -1.36495539      -1.36047564      -1.40058898       0.00000000
Si       1.41991380      -1.40440977       1.49996276       0.00000000
Si      -1.32209640       1.53492103       1.51444402       0.00000000
Si      -2.55277332      -0.02212182       2.79918292       0.00000000
Si       2.52595413       0.19886832       2.82848942       0.00000000
Si      -2.69889462      -2.71072116      -0.02511002       0.00000000
Si       2.71142067       2.70978027      -0.01661389       0.00000000
Si       2.70583483      -2.72841210      -0.02617634       0.00000000
Si      -2.73737160       2.70963203      -0.01895291       0.00000000
