10
Lattice="16.28999089631971 0.0 0.0 0.0 16.28999089631971 0.0 0.0 0.0 34.397273925272025" Properties=species:S:1:pos:R:3:initial_magmoms:R:1 pbc="T T T"
Si       1.54320057       1.28847384       1.26458209       0.00000000
Si      -1.18036851       1.50524487      -1.42177771       0.00000000
Si       1.51972668      -1.20291876      -1.40660851       0.00000000
Si      -1.64408128      -0.94434759       1.58193151       0.00000000
Si      -2.56402061      -2.47627548      -0.02528201       0.00000000
Si      -3.06917351       1.44821358       1.51757418       0.00000000
Si      -0.02726946      -2.17113120       3.04477959       0.00000000
Si      -2.55164045       0.15548805      -2.77661830       0.00000000
Si       0.16913907      -2.56062510      -2.77379772       0.00000000
Si       2.89295739      -2.50075935       0.03195509       0.00000000
