10
Lattice="16.28999089631971 0.0 0.0 0.0 16.28999089631971 0.0 0.0 0.0 34.397273925272025" Properties=species:S:1:pos:R:3:initial_magmoms:R:1 pbc="T T T"
Si      -0.14222799      -1.62833211       1.67944784       0.00000000
Si      -0.47242629       1.87446344       1.46714774       0.00000000
Si       2.41628660      -0.25888068      -0.38325464       0.00000000
Si       1.85682609       0.63451179      -2.46883132       0.00000000
Si      -2.42986527      -1.51951491       2.12042114       0.00000000
Si      -0.13939353      -2.69130348      -2.37238131       0.00000000
Si      -3.43386684      -1.47865959      -0.05620518       0.00000000
Si       3.41090513       0.97722081       1.41706529       0.00000000
Si       1.72644419      -1.53008712       3.11529405       0.00000000
Si      -2.81878902       2.09986964       1.75852721       0.00000000
