10
Lattice="16.28999089631971 0.0 0.0 0.0 16.28999089631971 0.0 0.0 0.0 34.397273925272025" Properties=species:S:1:pos:R:3:initial_magmoms:R:1 pbc="T T T"
Si       0.81766026       0.69406803       2.04990669       0.00000000
Si      -0.17596458      -2.35336743       0.03601397       0.00000000
Si      -2.30389470       0.58536486       0.03584198       0.00000000
Si       1.45697760       1.24491438      -1.45170336       0.00000000
Si      -2.67398721       0.02088378      -2.18323059       0.00000000
Si       0.86923440       3.03162343       1.65973819       0.00000000
Si       2.08502293      -2.96675109      -0.12850829       0.00000000
Si      -1.39548285      -1.77321537      -2.97639778       0.00000000
Si      -0.70719777      -0.13664052       3.74521168       0.00000000
Si       2.76082661      -1.78378758      -1.98152487       0.00000000
