10
Lattice="16.28999089631971 0.0 0.0 0.0 16.28999089631971 0.0 0.0 0.0 34.397273925272025" Properties=species:S:1:pos:R:3:initial_magmoms:R:1 pbc="T T T"
Si      -0.06359616      -1.24046721      -1.93925059       0.00000000
Si      -2.16439154      -0.32501808       0.79186009       0.00000000
Si       1.99264167      -0.88106094       0.83403117       0.00000000
Si       0.37932894       2.33381943      -0.29781176       0.00000000
Si       2.01756537      -0.66886740      -2.72202979       0.00000000
Si       3.25625697       1.05987627       1.13683054       0.00000000
Si      -3.38159942       0.03057633      -1.35941542       0.00000000
Si      -2.35731680       1.35834165       2.46834976       0.00000000
Si      -1.98616151      -0.73397853      -3.12375578       0.00000000
Si       3.16920321      -1.80142965      -1.02779112       0.00000000
