10
Lattice="16.28999089631971 0.0 0.0 0.0 16.28999089631971 0.0 0.0 0.0 34.397273925272025" Properties=species:S:1:pos:R:3:initial_magmoms:R:1 pbc="T T T"
Si       1.34969166      -1.34918667      -1.35590690       0.00000000
Si      -1.35483441      -1.35751086       1.35814272       0.00000000
Si      -1.36348277       1.36389654      -1.35071291       0.00000000
Si       1.33506324       1.35909099       1.38373431       0.00000000
Si      -0.58301910       2.17860831       2.65443911       0.00000000
Si      -2.37580202       0.26687907       2.70710137       0.00000000
Si       2.65580757      -0.05393619       2.73210820       0.00000000
Si       2.70516627      -2.70391194       0.00780819       0.00000000
Si       2.70796815       0.00636939      -2.71054110       0.00000000
Si      -0.00599472      -2.70791928      -2.71071308       0.00000000
