10
Lattice="16.28999089631971 0.0 0.0 0.0 16.28999089631971 0.0 0.0 0.0 34.397273925272025" Properties=species:S:1:pos:R:3:initial_magmoms:R:1 pbc="T T T"
Si      -0.90300357       0.25189227       2.13129068       0.00000000
Si      -0.78378358       1.88975403      -1.27441971       0.00000000
Si       1.91808234      -0.81951732      -1.27070480       0.00000000
Si      -1.79278292      -1.91172924       0.05266226       0.00000000
Si      -2.14466714       0.55263825      -2.64852278       0.00000000
Si       0.58301910      -2.17860831      -2.65443911       0.00000000
Si      -2.95988390       1.49121918       1.67669605       0.00000000
Si      -3.49501040      -0.82111374      -1.27383496       0.00000000
Si      -2.06970461       3.21375636       0.25171939       0.00000000
Si      -0.77181531      -3.53611917      -1.29629639       0.00000000
