10
Lattice="16.28999089631971 0.0 0.0 0.0 16.28999089631971 0.0 0.0 0.0 34.397273925272025" Properties=species:S:1:pos:R:3:initial_magmoms:R:1 pbc="T T T"
Si       1.35838047      -1.35493704      -1.36068812       0.00000000
Si      -1.35449164       1.36015214      -1.36048174       0.00000000
Si      -1.34872498      -1.35296595       1.39794039       0.00000000
Si       1.36269569       1.35681432       1.38132650       0.00000000
Si      -2.71368037      -2.71344159      -0.00264859       0.00000000
Si      -2.71327312       0.00191019      -2.71831489       0.00000000
Si       0.00140366      -2.71332756      -2.71865886       0.00000000
Si       2.72024728      -2.71507059       0.00130710       0.00000000
Si       2.71858570       2.71686968      -0.00213263       0.00000000
Si       0.00173070       2.71781450      -2.71786772       0.00000000
