10
Lattice="10.86 0.0 0.0 0.0 10.86 0.0 0.0 0.0 10.86" Properties=species:S:1:pos:R:3:initial_magmoms:R:1 pbc="T T T"
Si       1.19922636      -1.29036348       1.33462884       0.00000000
Si      -1.34341458      -1.31919678      -1.37128134       0.00000000
Si       1.35750000       1.35750000      -1.35750000       0.00000000
Si      -1.35750000       1.35750000       1.35750000       0.00000000
Si      -2.72254770      -2.62121304      -0.10590672       0.00000000
Si       2.71500000       2.71500000       0.00000000       0.00000000
Si      -2.71500000       0.00000000      -2.71500000       0.00000000
Si       0.00000000       2.71500000      -2.71500000       0.00000000
Si       0.00000000       2.71500000       2.71500000       0.00000000
Si       0.00000000      -2.71500000      -2.71500000       0.00000000
