10
Lattice="10.86 0.0 0.0 0.0 10.86 0.0 0.0 0.0 10.86" Properties=species:S:1:pos:R:3:initial_magmoms:R:1 pbc="T T T"
Si       1.23960384       1.29189474       1.31478762       0.00000000
Si       1.23205614      -1.32931830      -1.50611910       0.00000000
Si      -1.47539616       1.29189474      -1.40021238       0.00000000
Si      -1.47539616      -1.42310526       1.31478762       0.00000000
Si       2.64789606      -2.41082226       0.12136050       0.00000000
Si       2.59710384       2.64939474      -0.04271238       0.00000000
Si      -0.11789616       2.64939474       2.67228762       0.00000000
Si      -0.23377236      -2.55795354      -2.76801852       0.00000000
Si       2.61118926      -0.02730204      -2.77149372       0.00000000
Si      -0.11789616       2.64939474      -2.75771238       0.00000000
