10
Lattice="10.86 0.0 0.0 0.0 10.86 0.0 0.0 0.0 10.86" Properties=species:S:1:pos:R:3:initial_magmoms:R:1 pbc="T T T"
Si       1.26644976      -1.22098980      -1.38104448       0.00000000
Si      -1.44855024      -1.22098980       1.33395552       0.00000000
Si       1.26644976       1.49401020       1.33395552       0.00000000
Si       2.62394976      -2.57848980      -0.02354448       0.00000000
Si       0.14051754      -2.56735830      -2.66996358       0.00000000
Si      -0.09105024      -2.57848980       2.69145552       0.00000000
Si      -2.72603376      -2.58768822       0.01450896       0.00000000
Si       2.62394976       0.13651020       2.69145552       0.00000000
Si       2.62394976       0.13651020      -2.73854448       0.00000000
Si      -2.75525802       0.50629320      -2.57447160       0.00000000
