10
Lattice="10.86 0.0 0.0 0.0 10.86 0.0 0.0 0.0 10.86" Properties=species:S:1:pos:R:3:initial_magmoms:R:1 pbc="T T T"
Si      -1.21890468      -1.26744888       1.36463502       0.00000000
Si      -1.21890468       1.44755112      -1.35036498       0.00000000
Si       1.49609532      -1.26744888      -1.35036498       0.00000000
Si      -2.57640468      -2.62494888       0.00713502       0.00000000
Si      -2.57640468       0.09005112      -2.70786498       0.00000000
Si       0.13859532      -2.62494888      -2.70786498       0.00000000
Si       0.13859532      -2.62494888       2.72213502       0.00000000
Si       2.85359532      -2.62494888       0.00713502       0.00000000
Si       0.13859532       2.80505112      -2.70786498       0.00000000
Si       2.85359532       0.09005112      -2.70786498       0.00000000
