10
Lattice="16.28999089631971 0.0 0.0 0.0 16.28999089631971 0.0 0.0 0.0 34.385447050020396" Properties=species:S:1:pos:R:3:initial_magmoms:R:1 pbc="T T T"
Si       1.34721558       1.36139119       1.36852093       0.00000000
Si      -1.37132478      -1.35138807       1.36501361       0.00000000
Si      -1.10837160       1.41856583      -1.54482897       0.00000000
Si       1.44650313      -1.38444048      -1.28912488       0.00000000
Si      -2.70366759       2.71341395      -0.01957908       0.00000000
Si      -2.16003771      -0.08080065      -3.16243275       0.00000000
Si       2.70031185       2.72107025      -0.00075648       0.00000000
Si       2.70475902       0.00426887       2.72719385       0.00000000
Si      -0.00830790      -2.71171710       2.72695316       0.00000000
Si      -0.01024641       2.71826837       2.72674684       0.00000000
