10
Lattice="16.28999089631971 0.0 0.0 0.0 16.28999089631971 0.0 0.0 0.0 34.385447050020396" Properties=species:S:1:pos:R:3:initial_magmoms:R:1 pbc="T T T"
Si       1.10837160      -1.41856583       1.54482897       0.00000000
Si      -1.05166611      -1.49936648      -1.61760378       0.00000000
Si       1.64864574       1.21677015      -1.40001255       0.00000000
Si      -1.59529599       1.29484812       1.52524988       0.00000000
Si       2.55487473      -2.80300631       0.25570408       0.00000000
Si       2.45558718      -0.05717464       2.91334989       0.00000000
Si       2.68205076       2.79729111       0.08581925       0.00000000
Si      -0.25707249       2.65643148       2.90915487       0.00000000
Si      -0.26295318      -2.76995390       2.90984257       0.00000000
Si      -3.24772101       2.42587911       0.22761803       0.00000000
