10
Lattice="16.28999089631971 0.0 0.0 0.0 16.28999089631971 0.0 0.0 0.0 34.385447050020396" Properties=species:S:1:pos:R:3:initial_magmoms:R:1 pbc="T T T"
Si       0.81318051      -1.94413363      -0.98177383       0.00000000
Si       1.29337713       1.94158881      -0.31424878       0.00000000
Si       0.08633700      -0.39183966       2.33704260       0.00000000
Si      -2.21244264      -0.05087367      -0.98349311       0.00000000
Si       0.29452320       1.41364620      -3.09792420       0.00000000
Si      -0.29014119       3.51288963       0.36747748       0.00000000
Si      -2.12786496       2.46734856       1.44219523       0.00000000
Si      -2.63138886      -2.37808655      -0.53404068       0.00000000
Si      -1.37958381       1.18763874       3.25606296       0.00000000
Si      -0.62705097      -3.71424122      -0.41472311       0.00000000
