10
Lattice="16.28999089631971 0.0 0.0 0.0 16.28999089631971 0.0 0.0 0.0 34.385447050020396" Properties=species:S:1:pos:R:3:initial_magmoms:R:1 pbc="T T T"
Si       1.19179269      -1.43596187      -1.49679935       0.00000000
Si      -2.29117221      -0.70784123      -0.00464204       0.00000000
Si       0.40938399       2.13802992      -1.26352834       0.00000000
Si       0.63850284      -1.78557038       2.19809093       0.00000000
Si      -2.04577965      -3.07736738      -0.51234345       0.00000000
Si      -0.23053608       1.48471947      -3.46419818       0.00000000
Si      -0.93530664       3.69251946      -0.06646711       0.00000000
Si       0.10743255      -3.57699797      -1.58881485       0.00000000
Si       3.23934795      -2.17956032      -0.38412004       0.00000000
Si       1.15289217      -0.50390997      -3.74275485       0.00000000
