10
Lattice="16.28999089631971 0.0 0.0 0.0 16.28999089631971 0.0 0.0 0.0 34.385447050020396" Properties=species:S:1:pos:R:3:initial_magmoms:R:1 pbc="T T T"
Si       1.44230031       1.16098830       1.76981995       0.00000000
Si       1.60502112       0.59155506      -2.27243231       0.00000000
Si      -2.47577049       1.29710754       0.62598741       0.00000000
Si       0.05960511      -1.60464645       2.37930234       0.00000000
Si      -1.40315544      -2.14177662      -2.12237413       0.00000000
Si       3.09317778       1.89003096      -0.69671832       0.00000000
Si      -0.25283709       2.65601934       2.81273114       0.00000000
Si      -2.48277519      -2.19831921       2.27597401       0.00000000
Si       2.37330639      -0.82482786       3.18154965       0.00000000
Si       0.05131350       1.81082898      -3.71259879       0.00000000
