10
Lattice="16.28999089631971 0.0 0.0 0.0 16.28999089631971 0.0 0.0 0.0 34.385447050020396" Properties=species:S:1:pos:R:3:initial_magmoms:R:1 pbc="T T T"
Si       1.03364937      -1.68891462       1.25685756       0.00000000
Si       1.06103286       0.10349037      -2.10476878       0.00000000
Si      -2.20812579      -0.90205875      -0.32195112       0.00000000
Si       0.74896533       1.99456389       1.33611606       0.00000000
Si       0.24425226      -1.22344416       3.45446710       0.00000000
Si       3.13271361       1.09903743      -1.61831758       0.00000000
Si      -0.41027994       1.22232015      -3.47736782       0.00000000
Si      -3.46687038       0.98634321      -1.02740335       0.00000000
Si       1.13031423       1.03180860       3.46694902       0.00000000
Si       2.63666682       2.73178413       0.04617968       0.00000000
