10
Lattice="16.28999089631971 0.0 0.0 0.0 16.28999089631971 0.0 0.0 0.0 34.385447050020396" Properties=species:S:1:pos:R:3:initial_magmoms:R:1 pbc="T T T"
Si      -2.02207770      -0.32772222      -0.94749152       0.00000000
Si       1.22308578       1.94489568      -0.67316427       0.00000000
Si      -0.09749565      -0.56350368       2.33986221       0.00000000
Si      -0.28934298      -1.51325955      -2.15325228       0.00000000
Si       2.82163977       1.52925633       0.97795705       0.00000000
Si       1.80674019       0.78540606       2.98826895       0.00000000
Si      -2.51861319       1.71370800      -1.99270654       0.00000000
Si       1.04177808      -0.13796001      -3.58293120       0.00000000
Si       0.96940161      -3.40166151      -1.44780006       0.00000000
Si      -0.05010804       3.90334464      -0.44319427       0.00000000
