10
Lattice="16.28999089631971 0.0 0.0 0.0 16.28999089631971 0.0 0.0 0.0 34.385447050020396" Properties=species:S:1:pos:R:3:initial_magmoms:R:1 pbc="T T T"
Si       1.34469063      -1.55448954      -1.19706124       0.00000000
Si       0.13559796       2.11747194      -1.38490904       0.00000000
Si       0.27753273       0.41130621       2.50284932       0.00000000
Si      -2.30223312      -0.99036684      -0.57918879       0.00000000
Si      -1.57470543       3.16153062       0.03651737       0.00000000
Si      -1.18762245       2.43072864       2.56886941       0.00000000
Si       0.93530664      -3.69251946       0.06646711       0.00000000
Si       3.65487327      -1.04207130      -1.39615309       0.00000000
Si       2.03983380       3.46638168      -0.73650230       0.00000000
Si       0.70477056      -2.20779999      -3.39773108       0.00000000
