10
Lattice="16.28999089631971 0.0 0.0 0.0 16.28999089631971 0.0 0.0 0.0 34.385447050020396" Properties=species:S:1:pos:R:3:initial_magmoms:R:1 pbc="T T T"
Si      -1.35255870      -1.35553977       1.33140525       0.00000000
Si      -1.35715248       1.35596331      -1.35581893       0.00000000
Si       1.35790182      -1.35751086      -1.35492491       0.00000000
Si       1.35466011       1.36361961       1.37246150       0.00000000
Si      -0.15920217       2.55479328       2.79687944       0.00000000
Si      -0.00807984      -2.59309107       2.77796743       0.00000000
Si      -2.71314837      -2.71355562       0.00412626       0.00000000
Si       0.00022806       2.71425609      -2.71304767       0.00000000
Si       2.71443528      -0.00022806      -2.71304767       0.00000000
Si      -2.71467963      -0.00081450      -2.71284136       0.00000000
