10
Lattice="16.28999089631971 0.0 0.0 0.0 16.28999089631971 0.0 0.0 0.0 34.385447050020396" Properties=species:S:1:pos:R:3:initial_magmoms:R:1 pbc="T T T"
Si      -1.74822651      -0.77028894      -1.40124214       0.00000000
Si       1.86483033      -1.51646868       0.17980160       0.00000000
Si      -1.69003863       0.27451908       1.69939851       0.00000000
Si       0.88181028       1.90483857      -1.23980237       0.00000000
Si      -1.32594084       2.52231102       1.27074929       0.00000000
Si      -0.31154625      -2.00549448      -2.70527656       0.00000000
Si       1.32400233      -1.89149706       2.70328220       0.00000000
Si       1.03293261      -3.24304578      -1.25871438       0.00000000
Si       2.39567256       0.71366490      -2.66422031       0.00000000
Si      -2.73287556      -2.52718173      -0.19407157       0.00000000
