10
Lattice="16.28999089631971 0.0 0.0 0.0 16.28999089631971 0.0 0.0 0.0 34.385447050020396" Properties=species:S:1:pos:R:3:initial_magmoms:R:1 pbc="T T T"
Si      -0.58161816       0.47236113      -2.25995038       0.00000000
Si      -1.82267181      -0.85182039       1.28841452       0.00000000
Si       0.86449401       1.90869930       1.33738974       0.00000000
Si       1.62789228      -1.92826359      -0.08799241       0.00000000
Si       2.10825180       0.52098678       2.73235653       0.00000000
Si      -0.60701427      -2.19623409       2.73823988       0.00000000
Si       3.41312967      -0.83403171       1.29424973       0.00000000
Si      -2.80831455      -2.50559748      -0.13950184       0.00000000
Si       0.41914170      -1.46994444      -3.44487355       0.00000000
Si       2.72168433       2.78901090       0.14508264       0.00000000
