10
Lattice="16.28999089631971 0.0 0.0 0.0 16.28999089631971 0.0 0.0 0.0 34.385447050020396" Properties=species:S:1:pos:R:3:initial_magmoms:R:1 pbc="T T T"
Si       1.35645201       1.35838619      -1.35368704       0.00000000
Si      -1.35780408       1.35664336       1.35860416       0.00000000
Si       1.35723393      -1.35842310       1.35826030       0.00000000
Si      -1.35718506      -1.35861858      -1.35815715       0.00000000
Si       0.00933417       2.70376437      -2.71101893       0.00000000
Si       2.71461447       2.71295845       0.00171927       0.00000000
Si       2.71127502       0.00123804      -2.71748340       0.00000000
Si      -2.71494027       2.71439034       0.00130665       0.00000000
Si      -0.00125433       2.71310506       2.71724270       0.00000000
Si       2.71502172      -0.00302994       2.71545466       0.00000000
