10
Lattice="16.28999089631971 0.0 0.0 0.0 16.28999089631971 0.0 0.0 0.0 34.385447050020396" Properties=species:S:1:pos:R:3:initial_magmoms:R:1 pbc="T T T"
Si       1.35663120      -1.35692442       1.35733190       0.00000000
Si      -1.35757602       1.35755973       1.35733190       0.00000000
Si       1.35948195       1.35689184      -1.35647226       0.00000000
Si      -1.35868374      -1.36088289      -1.35839784       0.00000000
Si       0.00021177       2.71295289       2.71452625       0.00000000
Si       2.71609686      -0.00215028      -2.71222242       0.00000000
Si       2.71349046       0.00127062       2.71514519       0.00000000
Si       2.71456560      -2.71461447       0.00055017       0.00000000
Si      -2.71495656      -0.00073305       2.71456063       0.00000000
Si       0.00009774      -2.71420722       2.71545466       0.00000000
