10
Lattice="16.28999089631971 0.0 0.0 0.0 16.28999089631971 0.0 0.0 0.0 34.385447050020396" Properties=species:S:1:pos:R:3:initial_magmoms:R:1 pbc="T T T"
Si       1.44023148       1.77010758      -0.56705072       0.00000000
Si       0.30579588      -1.46564388      -1.84742795       0.00000000
Si      -2.00433789       1.33615467      -0.11931757       0.00000000
Si       0.23789916      -0.78407028       2.30069716       0.00000000
Si       3.27621222       0.78022584       0.50852666       0.00000000
Si      -2.17486161       1.62593748       2.22666525       0.00000000
Si      -0.20742057       1.23999480       3.34195785       0.00000000
Si      -1.57450995      -2.35010943       2.27593963       0.00000000
Si       3.36852765      -1.48123341      -0.16006435       0.00000000
Si       0.62705097       3.71424122       0.41472311       0.00000000
