10
Lattice="16.28999089631971 0.0 0.0 0.0 16.28999089631971 0.0 0.0 0.0 34.385447050020396" Properties=species:S:1:pos:R:3:initial_magmoms:R:1 pbc="T T T"
Si      -2.09260755       0.41953592       0.94315895       0.00000000
Si      -0.30363094      -0.09874021      -2.31696149       0.00000000
Si       1.10406127       2.10801397       0.29953180       0.00000000
Si       1.39551217      -1.90462747       0.47802675       0.00000000
Si       3.22427644      -0.52297483       0.23069209       0.00000000
Si       2.77442809       1.27463386       1.67973003       0.00000000
Si      -0.17221299       2.22238606      -2.98455532       0.00000000
Si      -2.23218027      -1.39743832      -2.66913743       0.00000000
Si       1.36669516      -1.58114065      -3.14011516       0.00000000
Si      -3.64512600      -1.29549550       0.55075201       0.00000000
