10
Lattice="16.28999089631971 0.0 0.0 0.0 16.28999089631971 0.0 0.0 0.0 34.385447050020396" Properties=species:S:1:pos:R:3:initial_magmoms:R:1 pbc="T T T"
Si      -0.44531973       2.02406508       1.04126069       0.00000000
Si       2.12815818      -0.38270097       0.99965428       0.00000000
Si      -1.81240911      -1.56603915      -0.02475754       0.00000000
Si      -0.23789916       0.78407028      -2.30069716       0.00000000
Si      -2.41276077       2.41000776      -0.07403191       0.00000000
Si       3.06093987      -1.84821453      -0.49418792       0.00000000
Si       1.25602416      -3.34722033      -0.52523800       0.00000000
Si      -0.88215237      -3.16643391      -1.52038778       0.00000000
Si       3.20619780       1.64936250       0.64304260       0.00000000
Si       3.03831306       1.56429612      -1.79217050       0.00000000
