10
Lattice="16.28999089631971 0.0 0.0 0.0 16.28999089631971 0.0 0.0 0.0 34.385447050020396" Properties=species:S:1:pos:R:3:initial_magmoms:R:1 pbc="T T T"
Si       0.40529520      -0.47558655      -2.27707435       0.00000000
Si       1.18294722      -1.69658721       1.20386956       0.00000000
Si       1.08436014       2.14103610       0.09201551       0.00000000
Si      -2.15321220       0.49963059       1.07647141       0.00000000
Si       2.03945913      -0.06064767       2.76827073       0.00000000
Si       2.76574878      -0.91365723      -2.02709201       0.00000000
Si       3.13191540       1.39743765       1.20469481       0.00000000
Si      -3.56094513      -0.48630537      -0.65868799       0.00000000
Si      -0.85975362      -2.43615321      -2.64561777       0.00000000
Si      -0.15794784       1.49073048      -3.45020330       0.00000000
