10
Lattice="16.28999089631971 0.0 0.0 0.0 16.28999089631971 0.0 0.0 0.0 34.385447050020396" Properties=species:S:1:pos:R:3:initial_magmoms:R:1 pbc="T T T"
Si       1.67036683      -0.83338011       1.38019823       0.00000000
Si      -0.54166368       1.91938554       1.21463221       0.00000000
Si      -1.10406127      -2.10801397      -0.29953180       0.00000000
Si       1.07434831       0.89246394      -1.95103136       0.00000000
Si       2.12021518      -2.63098880      -0.06883970       0.00000000
Si       2.79426280       1.92466350      -0.43858662       0.00000000
Si      -1.27627426       0.11437209      -3.28408711       0.00000000
Si       1.27986295       3.36189762       0.64782218       0.00000000
Si      -3.19666882      -1.68847805       0.64362716       0.00000000
Si      -1.40769220      -2.20675417      -2.61649328       0.00000000
