10
Lattice="16.28999089631971 0.0 0.0 0.0 16.28999089631971 0.0 0.0 0.0 34.385447050020396" Properties=species:S:1:pos:R:3:initial_magmoms:R:1 pbc="T T T"
Si       0.80979219      -2.11866667       0.50725440       0.00000000
Si      -2.25109881      -0.39026279       0.66071673       0.00000000
Si       0.80928720       1.40789746       1.76008886       0.00000000
Si       0.36395118      -0.00172348      -2.43442224       0.00000000
Si       3.08713419       1.46763289       1.03761583       0.00000000
Si       2.93972598      -2.25551896      -0.38295094       0.00000000
Si      -2.73136059      -2.58744400      -0.21910419       0.00000000
Si       2.14176033      -1.74101560      -2.59073857       0.00000000
Si      -0.70363026      -3.76711693      -0.30634012       0.00000000
Si      -0.54426519       3.40729948       1.69558173       0.00000000
