10
Lattice="16.28999089631971 0.0 0.0 0.0 16.28999089631971 0.0 0.0 0.0 34.385447050020396" Properties=species:S:1:pos:R:3:initial_magmoms:R:1 pbc="T T T"
Si      -1.35654975      -1.35562122       1.35633472       0.00000000
Si       1.35736425      -1.35782037      -1.35774452       0.00000000
Si      -1.35793440       1.35777150      -1.35740067       0.00000000
Si       1.35765747       1.35738054       1.35808838       0.00000000
Si       2.71516833       2.71463076      -0.00020631       0.00000000
Si      -2.71480995      -2.71503801       0.00096279       0.00000000
Si      -2.71487511       0.00195480      -2.71521396       0.00000000
Si       0.00024435      -2.71578735      -2.71435432       0.00000000
Si      -2.71520091       2.71538010      -0.00034385       0.00000000
Si       2.71538010      -2.71523349      -0.00034385       0.00000000
