10
Lattice="16.28999089631971 0.0 0.0 0.0 16.28999089631971 0.0 0.0 0.0 34.385447050020396" Properties=species:S:1:pos:R:3:initial_magmoms:R:1 pbc="T T T"
Si      -1.69513740       1.49503104       1.04291119       0.00000000
Si      -1.44230031      -1.16098830      -1.76981995       0.00000000
Si       0.93100608      -1.98581616       1.41172970       0.00000000
Si       0.35750034       1.72300959       2.20149509       0.00000000
Si       2.13324066       0.05136237       2.00491338       0.00000000
Si       1.65087747       0.72904266      -2.46653827       0.00000000
Si      -1.38269520      -2.76563475       0.60948239       0.00000000
Si       3.69558198      -0.10533114      -1.50333259       0.00000000
Si       1.14510555       3.67683219       1.12945941       0.00000000
Si      -0.38384127      -2.23769214       3.39315781       0.00000000
