10
Lattice="16.28999089631971 0.0 0.0 0.0 16.28999089631971 0.0 0.0 0.0 34.385447050020396" Properties=species:S:1:pos:R:3:initial_magmoms:R:1 pbc="T T T"
Si      -1.47131280       1.11882978      -1.37259904       0.00000000
Si       2.07168075       0.99554706       0.48645119       0.00000000
Si      -1.06103286      -0.10349037       2.10476878       0.00000000
Si       0.48780405      -1.41516117      -1.82696859       0.00000000
Si       3.04865721      -0.85875993       1.60050591       0.00000000
Si       2.29705290      -0.36383715      -2.93301150       0.00000000
Si       1.57563396       2.62829376       2.15094846       0.00000000
Si      -0.32019624       2.79679752      -2.52997945       0.00000000
Si      -0.02738349      -1.79240499       3.36162634       0.00000000
Si       3.16382751       1.39406562      -1.63458191       0.00000000
