10
Lattice="16.28999089631971 0.0 0.0 0.0 16.28999089631971 0.0 0.0 0.0 34.385447050020396" Properties=species:S:1:pos:R:3:initial_magmoms:R:1 pbc="T T T"
Si       2.25461745      -0.63679239      -0.22182064       0.00000000
Si      -0.38134890       0.96275529      -2.13083296       0.00000000
Si      -0.88606197      -2.25525276      -0.01248192       0.00000000
Si      -0.36569421       1.74825909       1.73756638       0.00000000
Si       2.13649866      -1.76156802       1.89092556       0.00000000
Si      -2.50110144       2.25320022       0.64716886       0.00000000
Si      -0.09666486      -2.72072322      -2.21009146       0.00000000
Si       0.19451889      -2.99029014       1.85585239       0.00000000
Si      -1.48620186       2.99705049      -1.36314304       0.00000000
Si       2.16829674      -2.32982838      -1.82408021       0.00000000
