10
Lattice="16.28999089631971 0.0 0.0 0.0 16.28999089631971 0.0 0.0 0.0 34.385447050020396" Properties=species:S:1:pos:R:3:initial_magmoms:R:1 pbc="T T T"
Si       0.92719422       1.06531713       1.85430504       0.00000000
Si       0.63457695       1.27984014      -1.86850624       0.00000000
Si      -2.13553755       1.08090666       0.16694144       0.00000000
Si       1.00804149      -2.17308600      -0.14885468       0.00000000
Si      -1.39315338       2.45951307      -1.78127031       0.00000000
Si      -3.37416399      -0.88329267       0.44938366       0.00000000
Si       2.95497342      -1.75451445       1.19114694       0.00000000
Si       1.80019161      -2.12634999      -2.53579060       0.00000000
Si       2.14799940       2.92829040      -1.05491172       0.00000000
Si      -2.61185715      -2.37677616      -1.41344898       0.00000000
