10
Lattice="16.28999089631971 0.0 0.0 0.0 16.28999089631971 0.0 0.0 0.0 34.385447050020396" Properties=species:S:1:pos:R:3:initial_magmoms:R:1 pbc="T T T"
Si      -0.12168630       1.63771515       1.62560730       0.00000000
Si       1.13883390      -1.90237878       0.82683292       0.00000000
Si      -2.34518985      -0.49964688      -0.06856462       0.00000000
Si       0.36142623       1.26680814      -2.04328756       0.00000000
Si      -1.73604159       2.93558832       0.58644413       0.00000000
Si      -2.37311091      -1.10558601      -2.31125350       0.00000000
Si       0.27205929      -3.66028155      -0.47159667       0.00000000
Si       0.04668714      -2.30089734       2.94786602       0.00000000
Si      -0.59737059      -2.77723323      -2.50783521       0.00000000
Si      -1.58550570       0.84823659      -3.38328918       0.00000000
