10
Lattice="16.28999089631971 0.0 0.0 0.0 16.28999089631971 0.0 0.0 0.0 34.385447050020396" Properties=species:S:1:pos:R:3:initial_magmoms:R:1 pbc="T T T"
Si       0.12168630      -1.63771515      -1.62560730       0.00000000
Si      -1.61435529       1.29787317      -1.03916318       0.00000000
Si       1.83899439       1.19369862       0.81366329       0.00000000
Si      -1.45235124      -0.56216790       1.82201709       0.00000000
Si      -1.59783723       1.79185113       2.40103395       0.00000000
Si      -2.22350355      -2.13736203      -1.69417192       0.00000000
Si       0.65318013       2.57233761       2.35124380       0.00000000
Si      -3.41927100      -0.20113263      -1.07021325       0.00000000
Si       3.04864092      -0.39480444       2.04486929       0.00000000
Si       0.48311253      -0.37090701      -3.66889487       0.00000000
