10
Lattice="16.28999089631971 0.0 0.0 0.0 16.28999089631971 0.0 0.0 0.0 34.385447050020396" Properties=species:S:1:pos:R:3:initial_magmoms:R:1 pbc="T T T"
Si      -1.12467789       1.74369789      -1.16473890       0.00000000
Si       0.49604679      -1.63274670      -1.66449727       0.00000000
Si       1.99785447       1.03628835       0.79320394       0.00000000
Si      -1.88770149      -0.73722024       1.28993638       0.00000000
Si      -1.57563396      -2.62829376      -2.15094846       0.00000000
Si       0.32767335       2.30586579      -2.98675599       0.00000000
Si      -2.63666682      -2.73178413      -0.04617968       0.00000000
Si       1.47302325      -3.48705369      -0.55044254       0.00000000
Si      -2.99255445       1.29707496       2.05762630       0.00000000
Si       3.37631427       1.91106135      -0.94188669       0.00000000
