10
Lattice="16.28999089631971 0.0 0.0 0.0 16.28999089631971 0.0 0.0 0.0 34.385447050020396" Properties=species:S:1:pos:R:3:initial_magmoms:R:1 pbc="T T T"
Si      -0.92665665       0.04662198       2.26648362       0.00000000
Si      -2.13540723       0.50494113      -1.09039752       0.00000000
Si       0.36569421      -1.74825909      -1.73756638       0.00000000
Si       2.22273792       1.59873318       0.14816697       0.00000000
Si      -1.12050765       1.24879140      -3.10070942       0.00000000
Si       0.85858074       1.14085386       3.64872577       0.00000000
Si      -0.01565469      -0.78550380      -3.86839934       0.00000000
Si      -3.13616709       2.44724670       0.09452565       0.00000000
Si      -2.55454893       1.97488557       2.35447603       0.00000000
Si       1.81903914       2.81818629       2.25376100       0.00000000
