10
Lattice="16.28999089631971 0.0 0.0 0.0 16.28999089631971 0.0 0.0 0.0 34.385447050020396" Properties=species:S:1:pos:R:3:initial_magmoms:R:1 pbc="T T T"
Si       1.82167812      -0.81107910      -1.25874876       0.00000000
Si      -2.19706488      -0.05681952      -0.90045221       0.00000000
Si       1.01011032       2.15892999      -0.39357605       0.00000000
Si       0.33474321      -1.85508891       1.58678611       0.00000000
Si       2.10494493       1.31139387      -2.27552700       0.00000000
Si      -0.79689051       3.32623881      -1.34374964       0.00000000
Si      -2.25474777       1.69155360      -2.46471584       0.00000000
Si      -0.06895557      -0.63563580       3.69238014       0.00000000
Si       2.90255220       2.22801588       1.27174647       0.00000000
Si      -3.83754933       0.90862362       0.76624573       0.00000000
