10
Lattice="16.28999089631971 0.0 0.0 0.0 16.28999089631971 0.0 0.0 0.0 34.385447050020396" Properties=species:S:1:pos:R:3:initial_magmoms:R:1 pbc="T T T"
Si      -1.29308391       1.30549689       1.57083813       0.00000000
Si      -1.77023430      -1.06337862      -1.27542713       0.00000000
Si       0.75834837       1.92687894      -1.33068457       0.00000000
Si       1.38380292      -1.35889551       1.53607099       0.00000000
Si      -3.42213804       0.88233156      -1.02962946       0.00000000
Si      -2.58416415       2.66525577       0.25478255       0.00000000
Si       2.77834095       2.61342099      -0.10138211       0.00000000
Si       3.06326934      -2.35040265       0.18417543       0.00000000
Si      -2.73069270      -2.74071105       0.11953763       0.00000000
Si      -2.68236027      -0.02106297       2.91511043       0.00000000
