10
Lattice="16.28999089631971 0.0 0.0 0.0 16.28999089631971 0.0 0.0 0.0 34.385447050020396" Properties=species:S:1:pos:R:3:initial_magmoms:R:1 pbc="T T T"
Si       1.29108024      -1.35975888       1.31605558       0.00000000
Si      -0.83797389      -1.78292421      -1.28441201       0.00000000
Si       1.63865997       1.06246638      -1.33011064       0.00000000
Si      -1.44650313       1.38444048       1.28912488       0.00000000
Si      -2.09815200      -0.54843543      -2.89194292       0.00000000
Si       2.58416415      -2.66525577      -0.25478255       0.00000000
Si       2.61659754       0.02858895       2.65713003       0.00000000
Si       3.34251252      -0.73837683      -1.58546712       0.00000000
Si      -0.09819612      -2.68631874       2.66032788       0.00000000
Si      -2.69516421      -2.66323581      -0.09210491       0.00000000
