10
Lattice="16.28999089631971 0.0 0.0 0.0 16.28999089631971 0.0 0.0 0.0 34.385447050020396" Properties=species:S:1:pos:R:3:initial_magmoms:R:1 pbc="T T T"
Si      -2.02773033       1.17967293       0.08723593       0.00000000
Si      -0.63457695      -1.27984014       1.86850624       0.00000000
Si       1.51342245       1.64845026       0.81359452       0.00000000
Si       0.60134535      -1.33024140      -1.89804335       0.00000000
Si      -2.77011450      -0.19893348       2.03544768       0.00000000
Si       1.16561466      -3.40619013      -0.66728436       0.00000000
Si      -2.43926460       1.69222149      -2.21545559       0.00000000
Si       0.29261727      -0.21452301       3.72281128       0.00000000
Si      -1.54746855       3.37685414       0.96705685       0.00000000
Si       0.70363026       3.76711693       0.30634012       0.00000000
