10
Lattice="16.28999089631971 0.0 0.0 0.0 16.28999089631971 0.0 0.0 0.0 34.385447050020396" Properties=species:S:1:pos:R:3:initial_magmoms:R:1 pbc="T T T"
Si      -1.83598074       0.98988174      -1.07557738       0.00000000
Si       0.09231543      -2.26145925      -0.66859101       0.00000000
Si       1.91459628      -0.74112984      -1.31441883       0.00000000
Si       0.16788474       0.08506638       2.43521311       0.00000000
Si       2.13400629       2.63087477      -0.12450977       0.00000000
Si      -3.27621222      -0.78022584      -0.50852666       0.00000000
Si       3.39309297       0.64557270      -0.12502556       0.00000000
Si      -0.91015488      -1.94699709       2.79182478       0.00000000
Si       0.02262681      -3.41251065       1.29798258       0.00000000
Si       1.31312061      -0.39848598      -3.57780777       0.00000000
