10
Lattice="16.28999089631971 0.0 0.0 0.0 16.28999089631971 0.0 0.0 0.0 34.385447050020396" Properties=species:S:1:pos:R:3:initial_magmoms:R:1 pbc="T T T"
Si       0.05768289      -1.74837312       1.56426363       0.00000000
Si       0.96863598      -1.09594233      -1.84072278       0.00000000
Si      -2.36045358       0.43807068      -0.24998234       0.00000000
Si       1.45785726       1.63468521       1.12096620       0.00000000
Si      -2.76574878       0.91365723       2.02709201       0.00000000
Si      -1.58280156      -0.78292998       3.23096157       0.00000000
Si       2.25474777      -1.69155360       2.46471584       0.00000000
Si       3.21965334      -0.31545585      -1.89051294       0.00000000
Si       0.01933623      -0.12440673      -3.78707771       0.00000000
Si       3.26485809       0.46737639       2.07113979       0.00000000
