10
Lattice="16.28999089631971 0.0 0.0 0.0 16.28999089631971 0.0 0.0 0.0 34.385447050020396" Properties=species:S:1:pos:R:3:initial_magmoms:R:1 pbc="T T T"
Si       1.35479043       1.35542574       1.35918871       0.00000000
Si      -1.36195803       1.35193968      -1.36063290       0.00000000
Si      -1.36073628      -1.36047564       1.35853539       0.00000000
Si       1.35713619      -1.36797230      -1.35953257       0.00000000
Si       2.71062078      -2.71611543       0.00051578       0.00000000
Si       2.71409319       2.71329498       0.00402310       0.00000000
Si      -0.00329058       2.71212210       2.71559220       0.00000000
Si       2.71215477      -0.00289962       2.71569535       0.00000000
Si      -2.71810053       2.71155195       0.00013754       0.00000000
Si      -0.00366525      -2.71735114       2.71555781       0.00000000
