10
Lattice="16.28999089631971 0.0 0.0 0.0 16.28999089631971 0.0 0.0 0.0 34.385447050020396" Properties=species:S:1:pos:R:3:initial_magmoms:R:1 pbc="T T T"
Si       0.82692927      -0.86985831       1.99727981       0.00000000
Si       1.85746725       0.81174699      -1.22732045       0.00000000
Si      -0.80708805      -1.89853157      -1.26817038       0.00000000
Si      -1.79307288       1.87098795       0.17443747       0.00000000
Si       0.56767392       2.14889535      -2.66648975       0.00000000
Si      -2.16116172      -0.57766132      -2.66752132       0.00000000
Si      -3.48922026       0.72207054      -1.16154105       0.00000000
Si      -0.80876592       3.47077998      -1.26273748       0.00000000
Si       2.44896108       0.65129049       2.83958619       0.00000000
Si      -2.57321727      -2.92404590      -0.03070622       0.00000000
