10
Lattice="16.28999089631971 0.0 0.0 0.0 16.28999089631971 0.0 0.0 0.0 34.385447050020396" Properties=species:S:1:pos:R:3:initial_magmoms:R:1 pbc="T T T"
Si      -2.05095987       1.11646773      -0.56378410       0.00000000
Si       1.00704780       1.50548922       1.59252848       0.00000000
Si      -0.04237029      -2.33181576       0.63162663       0.00000000
Si       1.21511997       0.69310692      -2.02207173       0.00000000
Si      -1.58201964      -2.34947412       2.40168728       0.00000000
Si       0.67466664       3.63773619       0.51719180       0.00000000
Si      -1.48954131       3.45334968      -0.38817753       0.00000000
Si      -2.45750940       0.19253151      -2.92747544       0.00000000
Si       2.87648398      -1.11902526      -2.32765537       0.00000000
Si       1.90848753       3.06950841      -1.44384573       0.00000000
