10
Lattice="16.28999089631971 0.0 0.0 0.0 16.28999089631971 0.0 0.0 0.0 34.385447050020396" Properties=species:S:1:pos:R:3:initial_magmoms:R:1 pbc="T T T"
Si      -2.16420795      -0.18438651      -0.90536933       0.00000000
Si       1.23382089      -0.56822778      -1.96103753       0.00000000
Si       0.33238116      -2.13224697       1.07533669       0.00000000
Si       0.80786997       1.93398138       1.19874612       0.00000000
Si       3.30404273      -0.63099315      -0.93342787       0.00000000
Si       2.71826736      -2.14066890       0.88879553       0.00000000
Si      -0.67466664      -3.63773619      -0.51719180       0.00000000
Si      -3.73572054       0.75553020       0.52812638       0.00000000
Si      -2.72562651      -2.52126846      -1.08097590       0.00000000
Si       0.54045333      -2.94462927      -2.53926353       0.00000000
