10
Lattice="16.28999089631971 0.0 0.0 0.0 16.28999089631971 0.0 0.0 0.0 34.385447050020396" Properties=species:S:1:pos:R:3:initial_magmoms:R:1 pbc="T T T"
Si      -0.45421407       1.08646155      -1.98328492       0.00000000
Si      -1.57151259       0.93991671       1.43349570       0.00000000
Si       2.16420795       0.18438651       0.90536933       0.00000000
Si      -0.56141856      -2.33688195      -0.17560658       0.00000000
Si       0.20794185       3.25669680      -0.97579076       0.00000000
Si      -0.61929693       3.17518164       1.33625360       0.00000000
Si      -3.51844452       0.52134516       0.09349408       0.00000000
Si       3.39802884      -0.38384127      -1.05566820       0.00000000
Si      -2.72629440       0.56808117      -2.29344183       0.00000000
Si       2.49658911      -1.94786046       1.98070601       0.00000000
