10
Lattice="16.28999089631971 0.0 0.0 0.0 16.28999089631971 0.0 0.0 0.0 34.385447050020396" Properties=species:S:1:pos:R:3:initial_magmoms:R:1 pbc="T T T"
Si      -0.81450000      -1.85740209      -1.16154105       0.00000000
Si       0.76836672      -1.01788065       1.95955895       0.00000000
Si       1.92057471       0.96759342      -0.99373998       0.00000000
Si      -1.84523346       1.68345747       0.07090283       0.00000000
Si       0.21981726       1.14660423       2.56206109       0.00000000
Si      -2.18018518      -0.51344451      -2.42802654       0.00000000
Si       0.57609585       2.20514472      -2.44030216       0.00000000
Si      -0.86058441       3.44035026      -1.13626773       0.00000000
Si      -3.65191568       0.70941321      -1.04380521       0.00000000
Si       2.75247243       2.69417052       0.44477601       0.00000000
