10
Lattice="16.28999089631971 0.0 0.0 0.0 16.28999089631971 0.0 0.0 0.0 34.385447050020396" Properties=species:S:1:pos:R:3:initial_magmoms:R:1 pbc="T T T"
Si       2.07285267       0.80123994      -0.79127835       0.00000000
Si      -0.70488459      -1.42122105      -1.80485874       0.00000000
Si       0.21191661      -1.39395159       1.94869314       0.00000000
Si      -1.29718899       1.75379769       1.09208241       0.00000000
Si      -0.07542270      -3.48949719      -0.74152258       0.00000000
Si       3.28368023       1.32426297       1.12093181       0.00000000
Si      -0.78558525      -0.20572641       3.67673475       0.00000000
Si      -0.89510292      -3.37095486       1.44126682       0.00000000
Si       0.37691802       3.21654195       1.98483227       0.00000000
Si      -3.08530971      -1.39149180      -1.75156127       0.00000000
