10
Lattice="16.28999089631971 0.0 0.0 0.0 16.28999089631971 0.0 0.0 0.0 34.385447050020396" Properties=species:S:1:pos:R:3:initial_magmoms:R:1 pbc="T T T"
Si      -1.36168110      -1.34998488      -1.36778508       0.00000000
Si       1.35773892       1.36319866      -1.37136117       0.00000000
Si       1.33175637      -1.45769436       1.30492844       0.00000000
Si      -1.36265850       1.39842501       1.39085773       0.00000000
Si       2.69337135      -0.12906567       2.58155765       0.00000000
Si       2.68247986       2.72751845      -0.01120966       0.00000000
Si      -2.71236645      -2.71241532       0.00814936       0.00000000
Si      -2.71673217       2.71929526      -0.00849321       0.00000000
Si       2.71949400      -2.71653669      -0.02939957       0.00000000
Si      -0.00084708      -2.71239903      -2.72676747       0.00000000
