10
Lattice="16.28999089631971 0.0 0.0 0.0 16.28999089631971 0.0 0.0 0.0 34.385447050020396" Properties=species:S:1:pos:R:3:initial_magmoms:R:1 pbc="T T T"
Si       0.44292510      -0.12660588      -2.36537622       0.00000000
Si      -0.75834837      -1.92687894       1.33068457       0.00000000
Si       2.01999258       0.68654205       1.22930247       0.00000000
Si      -1.70385255       1.80084321       0.25535648       0.00000000
Si      -2.05143228      -0.62138205       2.90152271       0.00000000
Si       0.65260998       2.13291486       2.84816678       0.00000000
Si      -3.34251252       0.73837683       1.58546712       0.00000000
Si       2.64308508      -1.88165790      -2.07956423       0.00000000
Si      -0.70555248       3.54460367       1.46464347       0.00000000
Si       3.53174760       1.50959430      -0.71607733       0.00000000
