10
Lattice="16.28999089631971 0.0 0.0 0.0 16.28999089631971 0.0 0.0 0.0 34.385447050020396" Properties=species:S:1:pos:R:3:initial_magmoms:R:1 pbc="T T T"
Si      -0.15832251       0.68149215       2.20115124       0.00000000
Si       1.21153617       1.42617321      -1.36328058       0.00000000
Si       1.20453147      -2.06925354       0.28670602       0.00000000
Si      -2.13080856      -0.12683394      -1.12296056       0.00000000
Si      -2.52117398      -2.26874088      -0.22374623       0.00000000
Si      -0.45950832      -3.36144150      -0.75837146       0.00000000
Si      -1.31053050      -1.09885824      -3.18402541       0.00000000
Si       0.66298671       3.59065809      -0.76077844       0.00000000
Si      -0.39539088      -1.45407798       3.41770903       0.00000000
Si       1.85979672       2.03535405       2.53403694       0.00000000
