10
Lattice="16.28999089631971 0.0 0.0 0.0 16.28999089631971 0.0 0.0 0.0 34.385447050020396" Properties=species:S:1:pos:R:3:initial_magmoms:R:1 pbc="T T T"
Si       1.35654975       1.35646169       1.35863854       0.00000000
Si      -1.35713619       1.35774697      -1.35729751       0.00000000
Si       1.35780408      -1.35664336      -1.35860416       0.00000000
Si      -1.35934023      -1.35924976       1.35777891       0.00000000
Si       0.00144981      -2.71312795       2.71325399       0.00000000
Si       2.71425609       0.00174283      -2.71229119       0.00000000
Si      -2.71383974       0.00214071       2.71352907       0.00000000
Si      -2.71496365       2.71488642      -0.00024070       0.00000000
Si      -2.71521559      -2.71483840      -0.00006877       0.00000000
Si       2.71510317       2.71500045       0.00096279       0.00000000
