10
Lattice="16.28999089631971 0.0 0.0 0.0 16.28999089631971 0.0 0.0 0.0 34.385447050020396" Properties=species:S:1:pos:R:3:initial_magmoms:R:1 pbc="T T T"
Si      -0.94605804       2.14233048       0.36108178       0.00000000
Si       1.75513347       0.19248264      -1.62584800       0.00000000
Si      -1.76680525      -1.14982965      -1.22051213       0.00000000
Si       0.28070928      -0.84203010       2.35997771       0.00000000
Si       0.51939036       0.02876814      -3.63481887       0.00000000
Si      -3.20356601       1.63492956       0.95196163       0.00000000
Si       0.46167489       3.12826644       2.09624118       0.00000000
Si      -0.71337168      -1.99715400      -3.17536027       0.00000000
Si      -3.06005111      -2.27506140       0.45258151       0.00000000
Si       2.61488709       2.62863585       1.01976977       0.00000000
