10
Lattice="16.28999089631971 0.0 0.0 0.0 16.28999089631971 0.0 0.0 0.0 34.385447050020396" Properties=species:S:1:pos:R:3:initial_magmoms:R:1 pbc="T T T"
Si      -1.35554044      -1.35754344      -1.35788206       0.00000000
Si      -1.35659049       1.35728280       1.35764136       0.00000000
Si       1.35875542      -1.35801585       1.35757259       0.00000000
Si       1.35924412       1.35685926      -1.35905117       0.00000000
Si      -0.00071513       2.71287144       2.71548904       0.00000000
Si      -2.71458256       2.71393029      -0.00013754       0.00000000
Si       0.00151986      -2.71433754       2.71431994       0.00000000
Si      -2.71402870      -2.71528236       0.00061894       0.00000000
Si      -2.71380064      -0.00133578       2.71583290       0.00000000
Si       2.71628257      -0.00123804       2.71459502       0.00000000
