10
Lattice="16.28999089631971 0.0 0.0 0.0 16.28999089631971 0.0 0.0 0.0 34.385447050020396" Properties=species:S:1:pos:R:3:initial_magmoms:R:1 pbc="T T T"
Si      -1.36161498      -1.32862869      -1.27662921       0.00000000
Si       1.27777945       1.50504521      -1.22450084       0.00000000
Si       1.72606396      -0.76693320       1.35368704       0.00000000
Si      -1.28797309       0.48757599       1.93885890       0.00000000
Si       0.91356763       0.74769471       2.87393727       0.00000000
Si      -2.51554971      -1.57050261       2.13612832       0.00000000
Si      -2.31668139      -2.84289822       0.19947009       0.00000000
Si       0.02612264      -2.58747102      -2.61095722       0.00000000
Si      -2.69337135       0.12906567      -2.58155765       0.00000000
Si       2.72635141       0.13035258      -2.57227357       0.00000000
