10
Lattice="16.28999089631971 0.0 0.0 0.0 16.28999089631971 0.0 0.0 0.0 34.385447050020396" Properties=species:S:1:pos:R:3:initial_magmoms:R:1 pbc="T T T"
Si       1.82876427       1.38165264      -0.24733466       0.00000000
Si      -0.14778288      -1.18954467       1.99174375       0.00000000
Si       0.41842494      -1.95484887      -1.33934830       0.00000000
Si      -1.39551217       1.90462747      -0.47802675       0.00000000
Si      -2.11787009      -2.20954302       1.22168123       0.00000000
Si       1.99928799       1.09186983      -2.59331748       0.00000000
Si       2.42911593      -2.59439427      -0.19806029       0.00000000
Si      -0.02881701       0.32348682      -3.61814192       0.00000000
Si       1.37891592       3.17926133       1.20170328       0.00000000
Si      -1.22347511      -3.48306264      -0.53998936       0.00000000
