10
Lattice="10.86 0.0 0.0 0.0 10.86 0.0 0.0 0.0 10.86" Properties=species:S:1:pos:R:3:initial_magmoms:R:1 pbc="T T T"
Si       0.98415492       1.59504078       1.44884346       0.00000000
Si      -1.73084508      -1.11995922       1.44884346       0.00000000
Si       2.03305716      -0.39204600      -1.47783966       0.00000000
Si      -1.73084508       1.59504078      -1.26615654       0.00000000
Si       2.31543888      -2.36821848      -0.10103058       0.00000000
Si       2.34165492       0.23754078       2.80634346       0.00000000
Si      -0.37334508      -2.47745922       2.80634346       0.00000000
Si       2.22646290       3.03121062       0.20967402       0.00000000
Si      -3.08834508      -2.47745922       0.09134346       0.00000000
Si      -0.20584044       2.54939586      -3.07165326       0.00000000
