10
Lattice="10.86 0.0 0.0 0.0 10.86 0.0 0.0 0.0 10.86" Properties=species:S:1:pos:R:3:initial_magmoms:R:1 pbc="T T T"
Si       1.35570810       1.35388362       1.26990324       0.00000000
Si      -1.35929190      -1.36111638       1.26990324       0.00000000
Si       1.35570810      -1.36111638      -1.44509676       0.00000000
Si      -0.00179190       2.71138362       2.62740324       0.00000000
Si       2.71320810      -0.00361638       2.62740324       0.00000000
Si      -2.71679190      -0.00361638       2.62740324       0.00000000
Si      -0.00179190      -2.71861638       2.62740324       0.00000000
Si      -2.69720046       0.13179696      -2.65333692       0.00000000
Si       2.71320810      -2.71861638      -0.08759676       0.00000000
Si      -2.71679190      -2.71861638      -0.08759676       0.00000000
