10
Lattice="10.86 0.0 0.0 0.0 10.86 0.0 0.0 0.0 10.86" Properties=species:S:1:pos:R:3:initial_magmoms:R:1 pbc="T T T"
Si       1.16439834       1.18681338       1.51680534       0.00000000
Si       1.16439834      -1.52818662      -1.19819466       0.00000000
Si      -1.55060166       1.18681338      -1.19819466       0.00000000
Si       2.52189834       2.54431338       0.15930534       0.00000000
Si       2.52189834      -0.17068662      -2.55569466       0.00000000
Si      -0.19310166       2.54431338      -2.55569466       0.00000000
Si      -2.88031092       2.39929980       0.08581572       0.00000000
Si       2.52189834      -0.17068662       2.87430534       0.00000000
Si       2.52189834      -2.88568662       0.15930534       0.00000000
Si      -0.19310166      -2.88568662      -2.55569466       0.00000000
