10
Lattice="10.86 0.0 0.0 0.0 10.86 0.0 0.0 0.0 10.86" Properties=species:S:1:pos:R:3:initial_magmoms:R:1 pbc="T T T"
Si      -1.37487600       1.28006820      -1.33550850       0.00000000
Si       2.70981978       2.64206424      -0.03901998       0.00000000
Si      -2.76192606       2.60832222      -0.09852192       0.00000000
Si       2.75344440      -0.12672534       2.62571994       0.00000000
Si      -0.04713240       2.48569110      -2.89205058       0.00000000
Si      -0.05807928       2.70084942       2.70125124       0.00000000
Si      -2.74401792      -0.15125808      -2.65788726       0.00000000
Si      -2.77033170      -2.66388198       0.04569888       0.00000000
Si      -0.07313124      -2.79567894       2.69903580       0.00000000
Si      -2.85342156      -0.07422810       2.65455324       0.00000000
