10
Lattice="10.86 0.0 0.0 0.0 10.86 0.0 0.0 0.0 10.86" Properties=species:S:1:pos:R:3:initial_magmoms:R:1 pbc="T T T"
Si       1.24413246      -1.31506998      -1.37178090       0.00000000
Si       1.24413246       1.39993002       1.34321910       0.00000000
Si      -1.47086754      -1.31506998       1.34321910       0.00000000
Si       2.60163246      -2.67256998      -0.01428090       0.00000000
Si       2.60163246       0.04243002       2.70071910       0.00000000
Si       2.60163246       0.04243002      -2.72928090       0.00000000
Si       2.60163246       2.75743002      -0.01428090       0.00000000
Si      -0.11336754      -2.67256998       2.70071910       0.00000000
Si      -2.75344440       0.12672534      -2.62571994       0.00000000
Si      -0.04362462       2.76878958      -2.66473992       0.00000000
