10
Lattice="10.86 0.0 0.0 0.0 10.86 0.0 0.0 0.0 10.86" Properties=species:S:1:pos:R:3:initial_magmoms:R:1 pbc="T T T"
Si       1.04240796      -1.40393736       1.27021818       0.00000000
Si      -1.41857664       1.29275268       1.51228758       0.00000000
Si      -1.31777412      -1.42338762      -1.63666716       0.00000000
Si       2.46292854      -0.13897542       2.61803106       0.00000000
Si      -0.25207146       2.57602458       2.61803106       0.00000000
Si       2.46292854      -2.85397542      -0.09696894       0.00000000
Si      -0.25207146      -2.85397542       2.61803106       0.00000000
Si      -2.96707146       2.57602458      -0.09696894       0.00000000
Si      -2.96707146      -0.13897542       2.61803106       0.00000000
Si      -0.25207146      -2.85397542      -2.81196894       0.00000000
