10
Lattice="10.86 0.0 0.0 0.0 10.86 0.0 0.0 0.0 10.86" Properties=species:S:1:pos:R:3:initial_magmoms:R:1 pbc="T T T"
Si      -1.39436970       1.19221080      -1.17229356       0.00000000
Si       1.01644170       1.51591482       1.37317098       0.00000000
Si       1.32063030      -1.52278920      -1.17229356       0.00000000
Si      -1.39436970      -1.52278920       1.54270644       0.00000000
Si      -0.03686970       2.54971080      -2.52979356       0.00000000
Si       2.67813030      -0.16528920      -2.52979356       0.00000000
Si       2.61482736       2.66645580       0.17191380       0.00000000
Si      -2.75186970      -0.16528920      -2.52979356       0.00000000
Si      -2.75186970       2.54971080       0.18520644       0.00000000
Si      -0.03686970      -2.88028920      -2.52979356       0.00000000
