10
Lattice="16.28999089631971 0.0 0.0 0.0 16.28999089631971 0.0 0.0 0.0 34.397273925272025" Properties=species:S:1:pos:R:3:initial_magmoms:R:1 pbc="T T T"
Si       0.19937983       2.27131470       0.42374025       0.00000000
Si       2.09455191      -0.88037676       0.47967025       0.00000000
Si      -0.86730403      -0.82645686      -1.99459584       0.00000000
Si      -1.56484088      -0.86998374       1.48641023       0.00000000
Si      -2.13464879       2.83489983       0.18350956       0.00000000
Si       1.11425229       2.10535218       2.65474869       0.00000000
Si       1.52006877      -2.94619311       1.38665808       0.00000000
Si       1.83635541       2.85795018      -1.25653312       0.00000000
Si      -3.12807815      -0.21232386      -1.83034876       0.00000000
Si       2.74874202       0.41985846       2.33860317       0.00000000
