10
Lattice="16.28999089631971 0.0 0.0 0.0 16.28999089631971 0.0 0.0 0.0 34.397273925272025" Properties=species:S:1:pos:R:3:initial_magmoms:R:1 pbc="T T T"
Si      -1.91169177      -0.05660775       1.34634445       0.00000000
Si       1.19669598       1.96654087       0.54629781       0.00000000
Si       1.63448973      -1.68549372      -0.31614552       0.00000000
Si      -0.91487246       0.16596252      -2.23100843       0.00000000
Si      -1.11425229      -2.10535218      -2.65474869       0.00000000
Si      -2.72719754       2.16474130       0.93385211       0.00000000
Si       0.42845958       3.36923531      -1.22980642       0.00000000
Si       3.41826102      -0.44768178      -1.14371000       0.00000000
Si       3.41565462       1.15217541       0.55644501       0.00000000
Si       0.98029962      -2.98572894      -2.17507843       0.00000000
