10
Lattice="16.28999089631971 0.0 0.0 0.0 16.28999089631971 0.0 0.0 0.0 34.397273925272025" Properties=species:S:1:pos:R:3:initial_magmoms:R:1 pbc="T T T"
Si      -1.52773743       1.03705351       1.49783013       0.00000000
Si       1.17630253      -1.49320656       1.49628225       0.00000000
Si      -0.92293113      -1.35058761      -1.81669304       0.00000000
Si       0.32254363       2.34351428      -1.20651945       0.00000000
Si      -3.04250515      -1.45569069      -0.81425272       0.00000000
Si      -2.97925108       2.25523062      -0.00471243       0.00000000
Si      -1.81213774       2.45586315      -2.27245717       0.00000000
Si       1.94224204      -3.32161245       0.23992112       0.00000000
Si      -0.24835571       2.34563198       3.07410814       0.00000000
Si       2.62469530      -0.37499580       3.00694743       0.00000000
