10
Lattice="16.28999089631971 0.0 0.0 0.0 16.28999089631971 0.0 0.0 0.0 34.397273925272025" Properties=species:S:1:pos:R:3:initial_magmoms:R:1 pbc="T T T"
Si      -1.35075051       1.35451350      -1.35920904       0.00000000
Si      -1.35117405      -1.35087106       1.37090412       0.00000000
Si       1.36549296      -1.36077212      -1.35690442       0.00000000
Si       1.38205989       1.35278676       1.36264877       0.00000000
Si       0.26854065      -2.36604431       2.79667192       0.00000000
Si      -2.70896184       2.71256193      -0.00182306       0.00000000
Si      -2.70767493      -0.00356751      -2.71573509       0.00000000
Si       0.00649971       2.71122615      -2.71587268       0.00000000
Si      -2.70484047      -2.72258061       0.00137589       0.00000000
Si       2.72298753       2.70602964       0.00254540       0.00000000
