10
Lattice="16.28999089631971 0.0 0.0 0.0 16.28999089631971 0.0 0.0 0.0 34.397273925272025" Properties=species:S:1:pos:R:3:initial_magmoms:R:1 pbc="T T T"
Si       1.62473202       1.69532474      -0.15485661       0.00000000
Si      -1.21477788       1.16814776       1.67274037       0.00000000
Si      -1.34726445      -0.05330577      -1.96549573       0.00000000
Si       0.45813996      -2.25601743       0.73431341       0.00000000
Si       2.85203691       1.11432559       1.76193255       0.00000000
Si      -1.64527371      -2.94417219       1.71470506       0.00000000
Si      -3.40809606       0.35167666       1.79598587       0.00000000
Si      -1.44765972       3.44083081       1.09737684       0.00000000
Si       0.70053516       3.86016800       0.26943400       0.00000000
Si      -0.26994159       1.08161527      -3.81214881       0.00000000
