10
Lattice="16.28999089631971 0.0 0.0 0.0 16.28999089631971 0.0 0.0 0.0 34.397273925272025" Properties=species:S:1:pos:R:3:initial_magmoms:R:1 pbc="T T T"
Si      -1.34918667       1.34767170       1.35872748       0.00000000
Si       1.35795069       1.35558864      -1.35466860       0.00000000
Si      -1.35612621      -1.35839052      -1.35470299       0.00000000
Si       1.35710361      -1.35734796       1.35986259       0.00000000
Si      -2.70326360      -0.01216863       2.71367125       0.00000000
Si       0.00050499       2.71409319      -2.71146982       0.00000000
Si      -2.71426912      -0.00081450      -2.71171061       0.00000000
Si       2.71565703      -0.00089595      -2.71105706       0.00000000
Si       0.00009774      -2.71554300      -2.71129784       0.00000000
Si      -2.71293171      -2.71412577       0.00374930       0.00000000
