10
Lattice="16.28999089631971 0.0 0.0 0.0 16.28999089631971 0.0 0.0 0.0 34.397273925272025" Properties=species:S:1:pos:R:3:initial_magmoms:R:1 pbc="T T T"
Si      -0.20513997      -1.10216511      -1.97990819       0.00000000
Si      -2.08256247      -0.57107853       0.78412069       0.00000000
Si       1.14831468      -1.13142195       1.69485783       0.00000000
Si       0.68849685       2.26375614      -0.11784513       0.00000000
Si      -2.02069305       0.66956787       2.72309611       0.00000000
Si       3.29650956      -0.71208477       0.86691498       0.00000000
Si      -0.02783961      -0.21098808       3.55681770       0.00000000
Si      -0.76071042      -3.27270987      -1.20586591       0.00000000
Si       1.96219566      -1.08776475      -2.81297624       0.00000000
Si       3.36028491       0.18984366      -1.30953935       0.00000000
