10
Lattice="16.28999089631971 0.0 0.0 0.0 16.28999089631971 0.0 0.0 0.0 34.397273925272025" Properties=species:S:1:pos:R:3:initial_magmoms:R:1 pbc="T T T"
Si      -1.14831468       1.13142195      -1.69485783       0.00000000
Si       2.14819488       0.41933718      -0.82794285       0.00000000
Si       0.23288184      -2.27268306       0.57536352       0.00000000
Si      -1.17615429       0.92043387       1.86195988       0.00000000
Si       0.78211548      -1.58798178       2.83633200       0.00000000
Si      -3.23087715       0.56034342      -0.91073713       0.00000000
Si       0.08760762       2.86094754       2.16465606       0.00000000
Si      -1.96043634      -3.08915415       0.69860902       0.00000000
Si      -3.13380504      -1.82500128      -0.86196177       0.00000000
Si       3.07239174      -1.74550608      -1.25223346       0.00000000
