10
Lattice="16.28999089631971 0.0 0.0 0.0 16.28999089631971 0.0 0.0 0.0 34.397273925272025" Properties=species:S:1:pos:R:3:initial_magmoms:R:1 pbc="T T T"
Si      -0.84243735      -1.60440210       1.61758228       0.00000000
Si      -1.69981263       1.74943197       0.29538411       0.00000000
Si       1.79610282       0.98556129       1.51820162       0.00000000
Si      -0.39599361      -1.32408378      -2.28377388       0.00000000
Si      -2.72950353      -2.52084492       0.60701251       0.00000000
Si       0.39180708       2.35625076       2.97643359       0.00000000
Si      -2.31567237      -0.36901737       3.01360674       0.00000000
Si      -2.59634907      -2.26100313      -1.72433631       0.00000000
Si      -3.56152017       0.92230722       1.54048419       0.00000000
Si       3.27455064       2.37335526       0.23789168       0.00000000
