10
Lattice="16.28999089631971 0.0 0.0 0.0 16.28999089631971 0.0 0.0 0.0 34.397273925272025" Properties=species:S:1:pos:R:3:initial_magmoms:R:1 pbc="T T T"
Si       2.21895864      -0.81436546       0.01014720       0.00000000
Si      -1.19669598      -1.96654087      -0.54629781       0.00000000
Si      -0.15827364       1.37131989       1.94795311       0.00000000
Si      -0.76823640       1.40269443      -1.77610423       0.00000000
Si       0.48723390       3.29222040      -1.26974168       0.00000000
Si      -0.29510964       3.51578436       0.90220660       0.00000000
Si       2.22156504      -2.41422265      -1.69000781       0.00000000
Si       0.43779375      -3.65203459      -0.86244333       0.00000000
Si      -3.10838775      -2.02314862       0.80004664       0.00000000
Si      -3.11739938       1.56710940      -1.49174181       0.00000000
