10
Lattice="16.28999089631971 0.0 0.0 0.0 16.28999089631971 0.0 0.0 0.0 34.397273925272025" Properties=species:S:1:pos:R:3:initial_magmoms:R:1 pbc="T T T"
Si      -1.33869591      -1.35716364      -1.38394069       0.00000000
Si       1.37051028       1.36416207      -1.37726762       0.00000000
Si       1.41631776      -1.17553853       1.53174586       0.00000000
Si      -1.40770035       1.36207695       1.46449915       0.00000000
Si       2.13915393       0.85335654       2.63706848       0.00000000
Si       0.40669614       2.53109622       2.51416695       0.00000000
Si      -2.69936703      -2.68767311      -0.00663868       0.00000000
Si      -2.68092675       2.71707915      -0.01970965       0.00000000
Si      -2.69749368       0.00352027      -2.73926284       0.00000000
Si       2.73769740      -2.70798674       0.01926248       0.00000000
