10
Lattice="16.28999089631971 0.0 0.0 0.0 16.28999089631971 0.0 0.0 0.0 34.397273925272025" Properties=species:S:1:pos:R:3:initial_magmoms:R:1 pbc="T T T"
Si      -1.27322640       1.35500220      -1.48420880       0.00000000
Si       1.81439649       1.16901927       1.04966780       0.00000000
Si      -1.80379170      -0.44996238       1.58585280       0.00000000
Si       1.40770035      -1.36207695      -1.46449915       0.00000000
Si      -2.38674564      -2.36382887      -0.05018565       0.00000000
Si      -2.52996732       2.77943238      -0.13284235       0.00000000
Si       3.54685428      -0.50872041       1.17256933       0.00000000
Si       2.82401811      -2.53761547       0.06724671       0.00000000
Si      -2.65528629       0.00221544      -2.84685757       0.00000000
Si       0.06770124       2.70824508      -2.84431217       0.00000000
