10
Lattice="16.28999089631971 0.0 0.0 0.0 16.28999089631971 0.0 0.0 0.0 34.397273925272025" Properties=species:S:1:pos:R:3:initial_magmoms:R:1 pbc="T T T"
Si       0.49752918      -2.33099216       0.03364055       0.00000000
Si      -2.39353857       0.34823133       0.33520162       0.00000000
Si      -0.00096111       0.45170541      -2.51726271       0.00000000
Si       0.90056007       1.27306350       2.05774927       0.00000000
Si      -3.20588829      -0.90170200      -1.70933909       0.00000000
Si       2.79432144      -2.63859623      -0.52944314       0.00000000
Si      -2.75737572       2.75110407       0.73689321       0.00000000
Si      -0.91106712      -3.63912803      -1.32635962       0.00000000
Si      -1.82733075       2.11980141      -2.88785914       0.00000000
Si       3.03762888       0.44105175       2.67920516       0.00000000
