10
Lattice="16.28999089631971 0.0 0.0 0.0 16.28999089631971 0.0 0.0 0.0 34.397273925272025" Properties=species:S:1:pos:R:3:initial_magmoms:R:1 pbc="T T T"
Si       1.52773743      -1.03705351      -1.49783013       0.00000000
Si       1.27938172       1.30857847       1.57627801       0.00000000
Si      -1.45151364       1.21817711      -1.50254256       0.00000000
Si      -1.25940567      -1.32721099       1.58748121       0.00000000
Si       1.85028106       1.30646077      -2.70434958       0.00000000
Si      -2.24340312      -2.92260472       0.14481260       0.00000000
Si       2.70403996      -2.53026007      -0.00154788       0.00000000
Si      -1.51476771      -2.49274420      -2.31208285       0.00000000
Si      -2.72503326      -0.41365150      -2.54739474       0.00000000
Si      -2.85569535       2.66356927      -0.11234156       0.00000000
