10
Lattice="16.28999089631971 0.0 0.0 0.0 16.28999089631971 0.0 0.0 0.0 34.397273925272025" Properties=species:S:1:pos:R:3:initial_magmoms:R:1 pbc="T T T"
Si      -1.27778760       1.36733373       1.51602974       0.00000000
Si       1.41941286      -1.32111900       1.48572916       0.00000000
Si       1.41980382       1.53367092      -1.36546044       0.00000000
Si      -1.37797110      -1.45761291      -1.52650857       0.00000000
Si      -2.62738152      -2.68053579       0.12409511       0.00000000
Si      -2.51048448       2.79937134       0.15316083       0.00000000
Si       2.77358427      -2.69944848       0.03142193       0.00000000
Si      -2.65380390       0.02958264       2.87515622       0.00000000
Si      -2.74095540      -0.06357987      -2.81764536       0.00000000
Si       0.06569757      -2.68986996       2.87381473       0.00000000
