10
Lattice="16.28999089631971 0.0 0.0 0.0 16.28999089631971 0.0 0.0 0.0 34.397273925272025" Properties=species:S:1:pos:R:3:initial_magmoms:R:1 pbc="T T T"
Si      -1.35472527       1.35568638       1.35473739       0.00000000
Si       1.35866745       1.35562122      -1.35714520       0.00000000
Si      -1.35674523      -1.35936792      -1.35735158       0.00000000
Si       1.35974259      -1.36456443       1.36106649       0.00000000
Si       0.01115865       2.70125667       2.70335206       0.00000000
Si      -2.71226871       2.71137276       0.00147908       0.00000000
Si      -2.71114470      -0.00928530       2.71656062       0.00000000
Si       0.00092853       2.71334385      -2.71449679       0.00000000
Si      -2.71365336      -0.00158013      -2.71422161       0.00000000
Si      -2.71399545      -2.71608057      -0.00068795       0.00000000
