10
Lattice="16.28999089631971 0.0 0.0 0.0 16.28999089631971 0.0 0.0 0.0 34.397273925272025" Properties=species:S:1:pos:R:3:initial_magmoms:R:1 pbc="T T T"
Si      -0.49748031       2.31467868       0.26097226       0.00000000
Si       2.11787919      -0.71687403      -0.85835005       0.00000000
Si      -0.79666245       0.82740168      -2.22908219       0.00000000
Si      -0.13364316      -0.85001220       2.41076869       0.00000000
Si       2.32546266       2.03939397       2.01843316       0.00000000
Si      -2.40832989      -0.50138991       2.88517615       0.00000000
Si       1.37528325       0.63338778       3.67235821       0.00000000
Si      -2.83993344       2.79207342       0.82044424       0.00000000
Si       0.86232744       1.86326649      -3.53408109       0.00000000
Si      -1.77618015      -0.84900222      -3.59111180       0.00000000
