10
Lattice="16.28999089631971 0.0 0.0 0.0 16.28999089631971 0.0 0.0 0.0 34.397273925272025" Properties=species:S:1:pos:R:3:initial_magmoms:R:1 pbc="T T T"
Si       1.35567009       1.35876519       1.37859535       0.00000000
Si      -1.35728280      -1.35682668       1.38193189       0.00000000
Si       1.49973885      -1.29945330      -1.34185216       0.00000000
Si      -1.42027623       1.38510612      -1.43427081       0.00000000
Si      -2.70021411      -2.71534752       0.00014447       0.00000000
Si      -2.72302011       2.71580364       0.01443310       0.00000000
Si       0.18252945      -2.69824302      -2.73839744       0.00000000
Si       2.71832859       2.73043206       0.01688563       0.00000000
Si      -2.71202436       0.00141723       2.74010901       0.00000000
Si       0.00156384      -2.71358820       2.74014341       0.00000000
