10
Lattice="16.28999089631971 0.0 0.0 0.0 16.28999089631971 0.0 0.0 0.0 34.397273925272025" Properties=species:S:1:pos:R:3:initial_magmoms:R:1 pbc="T T T"
Si       1.37514967       1.34706897      -1.34213766       0.00000000
Si       1.35454282      -1.35578412       1.36082571       0.00000000
Si      -1.35945723       1.35840681       1.36041294       0.00000000
Si      -1.38417140      -1.35571896      -1.35888226       0.00000000
Si       2.70921922      -2.71172625      -0.00134149       0.00000000
Si       2.71027807       2.71836117       0.00275178       0.00000000
Si      -2.71773630      -2.71121638       0.00529718       0.00000000
Si       2.71205368       0.00149868       2.71738616       0.00000000
Si      -0.00337692      -2.71346440       2.71759254       0.00000000
Si      -2.71666116       2.71524978      -0.00096312       0.00000000
