10
Lattice="16.28999089631971 0.0 0.0 0.0 16.28999089631971 0.0 0.0 0.0 34.397273925272025" Properties=species:S:1:pos:R:3:initial_magmoms:R:1 pbc="T T T"
Si       1.31720940       1.39878972       1.39654528       0.00000000
Si      -1.47844782      -1.38779397       1.28030994       0.00000000
Si       1.08673848      -1.46416149      -1.57426092       0.00000000
Si      -1.05479379       1.29261150      -1.77692977       0.00000000
Si      -0.40915593       0.17782164      -3.68061356       0.00000000
Si       2.54990628      -0.03324789       2.75941419       0.00000000
Si       2.44972278      -2.85819453      -0.28312412       0.00000000
Si      -0.18252945       2.69824302       2.73839744       0.00000000
Si      -0.17721891      -2.73553083       2.74825227       0.00000000
Si       2.62940148       2.94282108       0.05556409       0.00000000
