10
Lattice="16.28999089631971 0.0 0.0 0.0 16.28999089631971 0.0 0.0 0.0 34.397273925272025" Properties=species:S:1:pos:R:3:initial_magmoms:R:1 pbc="T T T"
Si       1.46531808      -1.26829053      -1.30963910       0.00000000
Si       1.35436689       1.34325711       1.36473668       0.00000000
Si      -1.36265850      -1.37166687       1.36170972       0.00000000
Si      -1.36058967       1.37332845      -1.39085455       0.00000000
Si       0.09360234      -2.48585400      -2.69971899       0.00000000
Si      -2.70759348       2.69900865       0.00374243       0.00000000
Si       2.71262709       2.70509579      -0.00541413       0.00000000
Si      -0.00050499       2.70227029       2.72305139       0.00000000
Si       2.71466334      -0.01332522       2.72157231       0.00000000
Si      -2.71533123      -0.01327635       2.72256983       0.00000000
