10
Lattice="16.28999089631971 0.0 0.0 0.0 16.28999089631971 0.0 0.0 0.0 34.397273925272025" Properties=species:S:1:pos:R:3:initial_magmoms:R:1 pbc="T T T"
Si       1.30559463      -1.42807914      -1.37320874       0.00000000
Si      -1.43637075       1.30357467      -1.37111050       0.00000000
Si       1.44813213       1.25991747       1.45208173       0.00000000
Si      -0.98974782      -1.96050150       1.08984384       0.00000000
Si      -0.07569963       2.63408414      -2.74841252       0.00000000
Si       2.63536362      -0.07828974      -2.74717421       0.00000000
Si       2.76048711      -2.73727386       0.12475898       0.00000000
Si       2.67931404       2.81570925       0.16727404       0.00000000
Si      -0.07869699      -2.79422370      -2.74318413       0.00000000
Si      -2.79420741      -0.07859925      -2.74480080       0.00000000
