10
Lattice="16.28999089631971 0.0 0.0 0.0 16.28999089631971 0.0 0.0 0.0 34.397273925272025" Properties=species:S:1:pos:R:3:initial_magmoms:R:1 pbc="T T T"
Si      -0.47962647      -1.72397070      -1.50636066       0.00000000
Si       1.30240179      -1.43611011       1.39743689       0.00000000
Si       1.68616161       0.87014664      -1.50601669       0.00000000
Si      -1.70919567       1.30331403       1.38814321       0.00000000
Si       2.50844823       2.34307215       0.11351107       0.00000000
Si      -0.15179022       2.42307234       2.70630133       0.00000000
Si       2.97773055      -2.30923782      -0.08764430       0.00000000
Si       1.53288900      -2.92798089      -1.92758991       0.00000000
Si      -1.11045672      -0.89505405      -3.57828161       0.00000000
Si       2.67411753      -0.21854664       2.78751678       0.00000000
