10
Lattice="16.28999089631971 0.0 0.0 0.0 16.28999089631971 0.0 0.0 0.0 34.397273925272025" Properties=species:S:1:pos:R:3:initial_magmoms:R:1 pbc="T T T"
Si      -0.82228662      -1.47292551      -1.61952775       0.00000000
Si       1.39313709       1.06183107      -1.55547999       0.00000000
Si      -1.40217804       1.49530734       1.20875528       0.00000000
Si       1.87476723      -1.44712215       1.13672735       0.00000000
Si       2.60340264      -1.01726163      -1.32016811       0.00000000
Si      -2.50844823      -2.34307215      -0.11351107       0.00000000
Si       1.22582250      -2.81505861      -1.81259976       0.00000000
Si       0.16566930      -2.56161879       2.67400571       0.00000000
Si      -2.66023845       0.08000019       2.59279026       0.00000000
Si       0.08679312       2.74848694       2.52728061       0.00000000
