10
Lattice="16.28999089631971 0.0 0.0 0.0 16.28999089631971 0.0 0.0 0.0 34.397273925272025" Properties=species:S:1:pos:R:3:initial_magmoms:R:1 pbc="T T T"
Si       0.47182356       2.31352928      -0.07794427       0.00000000
Si      -2.11921497      -0.76043349      -0.85301847       0.00000000
Si       1.98703791      -0.96050727      -1.12252126       0.00000000
Si      -2.52286488       0.76732288       1.11061980       0.00000000
Si       1.51418808       2.49868142       2.05668295       0.00000000
Si       2.38026222       2.52041228      -1.39941947       0.00000000
Si       2.90670615      -2.25994428       0.68615720       0.00000000
Si      -1.93567554      -3.13712820      -0.66892416       0.00000000
Si      -1.25082765       3.23841032      -1.42934512       0.00000000
Si       1.03369824      -2.41934193      -2.81025885       0.00000000
