10
Lattice="16.28999089631971 0.0 0.0 0.0 16.28999089631971 0.0 0.0 0.0 34.397273925272025" Properties=species:S:1:pos:R:3:initial_magmoms:R:1 pbc="T T T"
Si      -1.35303111       1.35514881      -1.36405906       0.00000000
Si       1.36187658      -1.36051799      -1.36292395       0.00000000
Si       1.36246302       1.37735208       1.35817712       0.00000000
Si      -1.37051028      -1.36416207       1.37726762       0.00000000
Si      -2.71050939       2.70615996      -0.00254540       0.00000000
Si       2.71408036       2.71283886      -0.00687946       0.00000000
Si      -2.70920619      -2.72132571      -0.00667307       0.00000000
Si       0.00353493       2.71176372      -2.72086029       0.00000000
Si      -2.71194291      -0.00327429      -2.72068830       0.00000000
Si       2.71625136      -2.72077928      -0.00233902       0.00000000
