10
Lattice="16.28999089631971 0.0 0.0 0.0 16.28999089631971 0.0 0.0 0.0 34.397273925272025" Properties=species:S:1:pos:R:3:initial_magmoms:R:1 pbc="T T T"
Si      -1.78740396       0.85994910      -1.37093852       0.00000000
Si       1.40418171      -1.44539215      -1.39020100       0.00000000
Si      -1.17568188      -1.39056490       1.64770743       0.00000000
Si       1.50335523       1.32890562       1.62359493       0.00000000
Si      -2.64820014       2.57074119       0.06566443       0.00000000
Si      -3.47727969      -0.85335165      -1.12857519       0.00000000
Si      -2.66465304      -2.64374450       0.32918210       0.00000000
Si       2.85569535      -2.66356927       0.11234156       0.00000000
Si       0.13066209      -3.07722077      -2.43505318       0.00000000
Si       3.37515672       2.09857554       0.39677278       0.00000000
