10
Lattice="16.28999089631971 0.0 0.0 0.0 16.28999089631971 0.0 0.0 0.0 34.397273925272025" Properties=species:S:1:pos:R:3:initial_magmoms:R:1 pbc="T T T"
Si       0.06134814      -2.30991385       0.20617738       0.00000000
Si      -2.06228142       0.82803699      -0.71938499       0.00000000
Si       1.38026052       0.85761963      -1.69912309       0.00000000
Si       0.94159851       1.10719872       1.86147831       0.00000000
Si       2.19602951      -2.42226273       1.27211509       0.00000000
Si       2.81122136      -0.27057690       2.25068369       0.00000000
Si      -2.07019836       0.37996425      -2.99934077       0.00000000
Si      -1.10576520      -2.51054638       2.47392212       0.00000000
Si       0.19780947       0.41603031      -3.67345892       0.00000000
Si      -0.02003670      -3.20488971      -2.02641333       0.00000000
