10
Lattice="16.28999089631971 0.0 0.0 0.0 16.28999089631971 0.0 0.0 0.0 34.397273925272025" Properties=species:S:1:pos:R:3:initial_magmoms:R:1 pbc="T T T"
Si       1.87180149       0.76966992      -1.22682215       0.00000000
Si       1.33916866      -1.34513046       1.48416409       0.00000000
Si      -1.35417141       1.37832948       1.45430724       0.00000000
Si      -1.50335523      -1.32890562      -1.62359493       0.00000000
Si       2.63172185      -2.68389642       0.06502464       0.00000000
Si      -2.67903711      -2.71947052       0.02411250       0.00000000
Si      -2.77358427       2.69944848      -0.03142193       0.00000000
Si       3.68465858      -0.79417008      -0.90568554       0.00000000
Si       2.85264194       2.64898206       0.02778613       0.00000000
Si       0.00560376      -2.70062788       2.84834353       0.00000000
