10
Lattice="16.28999089631971 0.0 0.0 0.0 16.28999089631971 0.0 0.0 0.0 34.397273925272025" Properties=species:S:1:pos:R:3:initial_magmoms:R:1 pbc="T T T"
Si      -0.00791694      -0.44807274      -2.27995578       0.00000000
Si       2.06228142      -0.82803699       0.71938499       0.00000000
Si      -2.11326912      -0.69924825       0.74033294       0.00000000
Si       0.01006722       2.34268119       0.26730137       0.00000000
Si      -3.15797940       1.36894644       0.36433613       0.00000000
Si       3.44254194       0.02958264      -0.97973810       0.00000000
Si       2.26009089      -0.41200668      -2.95407393       0.00000000
Si      -1.08607059       1.30210857      -3.42008846       0.00000000
Si       2.12362956      -3.13795085       0.92556236       0.00000000
Si       2.11305735       3.25531215       0.77091213       0.00000000
