10
Lattice="16.28999089631971 0.0 0.0 0.0 16.28999089631971 0.0 0.0 0.0 34.397273925272025" Properties=species:S:1:pos:R:3:initial_magmoms:R:1 pbc="T T T"
Si      -1.42058574      -1.25564949      -1.43544517       0.00000000
Si       1.31182469      -1.40960628       1.41988242       0.00000000
Si      -1.41102351       1.30336290       1.44326570       0.00000000
Si       1.13233419       1.86134427      -1.14715764       0.00000000
Si      -2.36335320       0.68095458      -2.74288629       0.00000000
Si      -2.66696622       2.77164576       0.13227479       0.00000000
Si       2.64993244      -0.04549797       2.80314205       0.00000000
Si      -0.06041961       2.66432724       2.80444915       0.00000000
Si      -0.06012639      -2.76293061       2.80352042       0.00000000
Si      -2.77332363      -0.04839759       2.80685696       0.00000000
