10
Lattice="16.28999089631971 0.0 0.0 0.0 16.28999089631971 0.0 0.0 0.0 34.397273925272025" Properties=species:S:1:pos:R:3:initial_magmoms:R:1 pbc="T T T"
Si      -1.25594271       1.46828286      -1.31099091       0.00000000
Si       1.35060390       1.36096434       1.36118344       0.00000000
Si      -1.36230012      -1.35176049       1.36359125       0.00000000
Si       1.41102351      -1.30336290      -1.44326570       0.00000000
Si       2.54335770       0.55798137      -2.59042334       0.00000000
Si      -2.62765845       0.25071939      -2.70107080       0.00000000
Si      -0.00762372      -2.70640431       2.72132121       0.00000000
Si       2.70825648       0.00832419       2.72183717       0.00000000
Si      -2.70715365      -2.72534958       0.00277930       0.00000000
Si       2.72284820      -2.71296918      -0.02338328       0.00000000
