10
Lattice="16.28999089631971 0.0 0.0 0.0 16.28999089631971 0.0 0.0 0.0 34.397273925272025" Properties=species:S:1:pos:R:3:initial_magmoms:R:1 pbc="T T T"
Si       1.23461910      -1.41553584      -1.49659183       0.00000000
Si      -1.91814750      -0.91909809       1.17452997       0.00000000
Si       1.76010192       0.88930368       1.44888278       0.00000000
Si      -1.45489248       1.30919472      -1.49796772       0.00000000
Si       2.05232823      -1.82322567       2.47268382       0.00000000
Si       2.66248453       2.61830799       0.02521322       0.00000000
Si       2.93320902      -2.50209513      -0.17298399       0.00000000
Si       2.58549993      -0.04745277      -2.87141724       0.00000000
Si      -2.76048711       2.73727386      -0.12475898       0.00000000
Si      -2.79665091      -2.70769122      -0.10054329       0.00000000
