10
Lattice="16.28999089631971 0.0 0.0 0.0 16.28999089631971 0.0 0.0 0.0 34.397273925272025" Properties=species:S:1:pos:R:3:initial_magmoms:R:1 pbc="T T T"
Si      -0.36794223      -0.56470914      -2.21779987       0.00000000
Si       2.30436711      -0.58621194      -0.03639234       0.00000000
Si      -1.28650275      -1.56983472       1.26107356       0.00000000
Si      -0.47552139       2.35306185       0.08826345       0.00000000
Si       2.12864688      -2.93878116       0.00006879       0.00000000
Si       0.52002567       1.26058766      -3.37564716       0.00000000
Si       3.12207624       0.10844253       2.01392712       0.00000000
Si      -3.34456506      -0.46120248       1.87671631       0.00000000
Si       1.01766888       3.38664932       1.57305701       0.00000000
Si       0.03456738      -2.37104208       3.06325094       0.00000000
