10
Lattice="16.28999089631971 0.0 0.0 0.0 16.28999089631971 0.0 0.0 0.0 34.397273925272025" Properties=species:S:1:pos:R:3:initial_magmoms:R:1 pbc="T T T"
Si       0.88371947      -0.25523172      -2.14845493       0.00000000
Si      -1.78967220      -1.48095648       0.55544749       0.00000000
Si       1.40983760       1.47004218       1.37506619       0.00000000
Si      -2.08189851       1.23157287      -0.46835354       0.00000000
Si      -0.90879141      -2.15982594      -2.09022031       0.00000000
Si      -1.17951589       2.96057718      -1.89202311       0.00000000
Si       0.10340729       1.63202994      -3.41203949       0.00000000
Si      -1.94750601      -0.10186137       3.43618639       0.00000000
Si       0.48178001       3.66681384       1.52610471       0.00000000
Si       2.41352966      -2.93057100       1.29168715       0.00000000
