10
Lattice="16.28999089631971 0.0 0.0 0.0 16.28999089631971 0.0 0.0 0.0 34.397273925272025" Properties=species:S:1:pos:R:3:initial_magmoms:R:1 pbc="T T T"
Si      -0.87349424      -2.09754927      -0.50127175       0.00000000
Si      -2.17732859       0.93463875       0.03040721       0.00000000
Si       0.80949897       0.41280489      -2.19822781       0.00000000
Si       1.15398360       0.40624002       2.09173379       0.00000000
Si      -1.85364203       3.08885183       0.99019488       0.00000000
Si       0.21203064       2.68258900      -2.65787884       0.00000000
Si      -0.48299198      -0.18039546       3.77200717       0.00000000
Si       3.14465418       0.12031794      -2.22492011       0.00000000
Si      -1.54967584      -3.27816702       1.35367107       0.00000000
Si       0.59188086      -3.41914068      -1.75123499       0.00000000
