10
Lattice="16.28999089631971 0.0 0.0 0.0 16.28999089631971 0.0 0.0 0.0 34.397273925272025" Properties=species:S:1:pos:R:3:initial_magmoms:R:1 pbc="T T T"
Si       2.33515521      -0.29248695      -0.02669230       0.00000000
Si      -0.80949897      -0.41280489       2.19822781       0.00000000
Si      -0.59746833       2.26978411      -0.45965103       0.00000000
Si      -0.99574254      -1.23632955      -1.79970077       0.00000000
Si      -1.68299321      -2.51035416       1.69695606       0.00000000
Si       0.78216435       3.19421555       1.17934559       0.00000000
Si       2.79158472       1.84136688       1.01719675       0.00000000
Si       2.91672450      -0.70108902      -2.19182992       0.00000000
Si      -2.98682756       0.52183386       2.22863502       0.00000000
Si      -3.40914581      -0.97518456      -1.41568939       0.00000000
