10
Lattice="16.28999089631971 0.0 0.0 0.0 16.28999089631971 0.0 0.0 0.0 34.56954931742767" Properties=species:S:1:pos:R:3:initial_magmoms:R:1 pbc="T T T"
Si       1.35197226       1.35420399       1.36854700       0.00000000
Si      -1.36326123      -1.36082587       1.36695680       0.00000000
Si       1.35909099      -1.37379271      -1.36282228       0.00000000
Si      -1.41379281       1.33646418      -1.38518879       0.00000000
Si      -0.06569757      -2.59973104      -2.76533184       0.00000000
Si       2.70444951       2.70247842      -0.01754060       0.00000000
Si       2.69035866      -2.71931898       0.02765565       0.00000000
Si       2.70852201      -0.00298107       2.72761502       0.00000000
Si      -0.00562005       2.71109583       2.72733846       0.00000000
Si      -0.00573408      -2.72006530       2.72806442       0.00000000
