10
Lattice="16.28999089631971 0.0 0.0 0.0 16.28999089631971 0.0 0.0 0.0 34.56954931742767" Properties=species:S:1:pos:R:3:initial_magmoms:R:1 pbc="T T T"
Si      -1.35738054      -1.35710524       1.35675186       0.00000000
Si      -1.35731538       1.35747828      -1.35737411       0.00000000
Si       1.35757602      -1.35754181      -1.35716670       0.00000000
Si       1.35772263       1.35705474       1.35799636       0.00000000
Si      -2.71249677       0.00008145       2.71547419       0.00000000
Si      -2.71450044      -2.71478444       0.00010371       0.00000000
Si       2.71495656       0.00076563      -2.71447167       0.00000000
Si       0.00081450       2.71484253      -2.71474823       0.00000000
Si      -2.71507059       0.00055386      -2.71474823       0.00000000
Si      -2.71482624       2.71500543       0.00017285       0.00000000
