10
Lattice="16.28999089631971 0.0 0.0 0.0 16.28999089631971 0.0 0.0 0.0 34.56954931742767" Properties=species:S:1:pos:R:3:initial_magmoms:R:1 pbc="T T T"
Si      -1.33292925      -1.35391077      -1.36736472       0.00000000
Si       1.31369076      -1.29756366       1.44372889       0.00000000
Si       1.37839464       1.36505313      -1.36446087       0.00000000
Si      -1.42641756       1.28487375       1.48818536       0.00000000
Si       1.91598093       0.60965325       2.84832504       0.00000000
Si       0.14613759       2.42725887       2.86668148       0.00000000
Si      -2.68435254      -2.71780894       0.01925525       0.00000000
Si      -2.69431713       2.71601541       0.00860782       0.00000000
Si      -2.69404509       0.00311139      -2.72567221       0.00000000
Si       2.73466746      -2.70108562       0.01137339       0.00000000
