10
Lattice="16.28999089631971 0.0 0.0 0.0 16.28999089631971 0.0 0.0 0.0 34.56954931742767" Properties=species:S:1:pos:R:3:initial_magmoms:R:1 pbc="T T T"
Si      -1.35534429       1.35573662      -1.36086564       0.00000000
Si       1.36023129      -1.36002371      -1.35993226       0.00000000
Si      -1.35961227      -1.35718925       1.37552314       0.00000000
Si       1.35713619       1.36574845       1.37659479       0.00000000
Si      -2.71046052       2.71292331      -0.00214331       0.00000000
Si      -2.70993924      -2.71792553      -0.00017285       0.00000000
Si       2.71764441       2.71030062       0.00058768       0.00000000
Si      -2.71246419      -0.00194258      -2.71751379       0.00000000
Si       0.00203625       2.71284186      -2.71761750       0.00000000
Si       0.10432116      -2.66209970       2.76750139       0.00000000
