10
Lattice="16.28999089631971 0.0 0.0 0.0 16.28999089631971 0.0 0.0 0.0 34.56954931742767" Properties=species:S:1:pos:R:3:initial_magmoms:R:1 pbc="T T T"
Si      -1.31369076       1.29756366      -1.44372889       0.00000000
Si      -1.23929433      -1.50102413       1.35001079       0.00000000
Si       0.60229017       1.90721691       1.40459614       0.00000000
Si       1.42097670      -1.40352196      -1.43235551       0.00000000
Si       2.54674602       2.51796159       0.04729117       0.00000000
Si       0.73345725       0.70328817       3.51866354       0.00000000
Si      -2.74010832       2.58243741       0.04445647       0.00000000
Si      -2.64662001      -0.05634711      -2.81109361       0.00000000
Si       0.06470388       2.66261679      -2.80818977       0.00000000
Si      -2.70642060      -2.86018910       0.05786946       0.00000000
