10
Lattice="16.28999089631971 0.0 0.0 0.0 16.28999089631971 0.0 0.0 0.0 34.56954931742767" Properties=species:S:1:pos:R:3:initial_magmoms:R:1 pbc="T T T"
Si       0.91105083      -0.04577490       2.19998834       0.00000000
Si      -1.77966621       1.68839334      -0.01044001       0.00000000
Si       1.59904269       1.55463615      -1.08541532       0.00000000
Si       0.61035372      -2.03730885      -1.31423129       0.00000000
Si       0.09462861       3.12414507      -0.01164994       0.00000000
Si      -1.55403342      -2.74645232      -1.05070747       0.00000000
Si      -0.42349113      -3.20104106       0.97939045       0.00000000
Si       2.98362753      -1.88635919       0.00867696       0.00000000
Si       0.69247161       1.14720696      -3.44171168       0.00000000
Si       3.66595047       0.41145282      -0.58591962       0.00000000
