10
Lattice="16.28999089631971 0.0 0.0 0.0 16.28999089631971 0.0 0.0 0.0 34.56954931742767" Properties=species:S:1:pos:R:3:initial_magmoms:R:1 pbc="T T T"
Si      -1.36720070      -1.35017776      -1.38233334       0.00000000
Si       1.35142329       1.36389817      -1.38661997       0.00000000
Si      -1.26491280       1.47890557       1.43716068       0.00000000
Si       1.29162270      -1.43994382       1.48234310       0.00000000
Si       2.68435254       2.71780894      -0.01925525       0.00000000
Si       2.70227154      -2.70621439      -0.00895352       0.00000000
Si      -2.72144228      -2.71059640       0.00217788       0.00000000
Si      -2.72237081       2.72821825      -0.01213392       0.00000000
Si       2.70653952       0.00671148      -2.74534229       0.00000000
Si      -0.00793323      -2.70826693      -2.74406322       0.00000000
