10
Lattice="16.28999089631971 0.0 0.0 0.0 16.28999089631971 0.0 0.0 0.0 34.56954931742767" Properties=species:S:1:pos:R:3:initial_magmoms:R:1 pbc="T T T"
Si       1.35801585       1.35418770      -1.38098513       0.00000000
Si      -1.35832536      -1.35804843      -1.37925665       0.00000000
Si       1.12371678      -1.50270363       1.47622429       0.00000000
Si      -1.35936792       1.35619137       1.50958392       0.00000000
Si       2.29144914       0.10798641       2.74682878       0.00000000
Si      -0.82073907      -2.11344831       2.83352926       0.00000000
Si       2.70319518       2.70471015      -0.00186676       0.00000000
Si      -2.71257822       2.69596242      -0.01164994       0.00000000
Si       2.70286938      -2.71722087      -0.00473603       0.00000000
Si       0.00073305       2.70945054      -2.74039884       0.00000000
