10
Lattice="16.28999089631971 0.0 0.0 0.0 16.28999089631971 0.0 0.0 0.0 34.56954931742767" Properties=species:S:1:pos:R:3:initial_magmoms:R:1 pbc="T T T"
Si       0.70993449       2.01406302       0.89746057       0.00000000
Si      -2.20081158      -0.73832796       0.15106901       0.00000000
Si       1.48577832      -1.60622658       0.88722798       0.00000000
Si       0.24623964       0.00812871      -2.35681491       0.00000000
Si      -0.22146255      -2.29677597      -2.55534794       0.00000000
Si      -3.25402524       1.35233064      -0.34987860       0.00000000
Si       1.54204398      -3.00915396      -1.07248630       0.00000000
Si       2.96461710       1.92275757       0.39716977       0.00000000
Si       3.44719206      -0.24863427       1.25636183       0.00000000
Si      -2.46286881      -2.19638070      -1.75547726       0.00000000
