10
Lattice="16.28999089631971 0.0 0.0 0.0 16.28999089631971 0.0 0.0 0.0 34.56954931742767" Properties=species:S:1:pos:R:3:initial_magmoms:R:1 pbc="T T T"
Si       0.81298503       1.83806586      -1.22333545       0.00000000
Si      -1.43454627       1.28330991       1.41817161       0.00000000
Si       1.30593672      -1.43742960       1.41044877       0.00000000
Si      -1.46671902      -1.31432607      -1.46557483       0.00000000
Si       2.62539414       2.74049928       0.02369744       0.00000000
Si      -2.69436111       2.69884575      -0.14329086       0.00000000
Si       1.18060146       1.08251937      -3.46604663       0.00000000
Si      -0.07358193       2.64176559       2.79970294       0.00000000
Si       2.64241719      -0.07320726       2.80239937       0.00000000
Si      -2.73195192      -2.76053598      -0.08826648       0.00000000
