10
Lattice="16.28999089631971 0.0 0.0 0.0 16.28999089631971 0.0 0.0 0.0 34.56954931742767" Properties=species:S:1:pos:R:3:initial_magmoms:R:1 pbc="T T T"
Si       1.21498965      -1.93556151      -0.49545106       0.00000000
Si       1.65278340       1.18358253       1.28875352       0.00000000
Si      -0.29924730       1.55553210      -1.87681645       0.00000000
Si      -2.47290345      -0.17283690       0.29404875       0.00000000
Si      -0.57459717      -3.34492344      -0.85663391       0.00000000
Si       0.33111054       2.77705404       2.37174897       0.00000000
Si      -2.82178638      -2.42313750      -0.89905077       0.00000000
Si       1.81527615       2.58742215      -2.18884138       0.00000000
Si       3.11331222       2.25828270      -0.17129221       0.00000000
Si      -2.84051988       0.58270959       2.53675993       0.00000000
