10
Lattice="16.28999089631971 0.0 0.0 0.0 16.28999089631971 0.0 0.0 0.0 34.56954931742767" Properties=species:S:1:pos:R:3:initial_magmoms:R:1 pbc="T T T"
Si       1.34104167       1.35732587      -1.34662989       0.00000000
Si      -1.35505107       1.35657955       1.35377888       0.00000000
Si      -1.36047564      -1.34133489      -1.36546685       0.00000000
Si       1.35744570      -1.35630540       1.35384802       0.00000000
Si      -0.01531260      -2.61612513      -2.78485531       0.00000000
Si      -2.71313208       0.00022806       2.71070359       0.00000000
Si       0.00135207      -2.71445157       2.71059988       0.00000000
Si       0.00182448       2.71535634       2.71063445       0.00000000
Si       2.71658556       0.00045612       2.71032332       0.00000000
Si      -2.71257822       2.71581897      -0.00732875       0.00000000
