10
Lattice="16.28999089631971 0.0 0.0 0.0 16.28999089631971 0.0 0.0 0.0 34.56954931742767" Properties=species:S:1:pos:R:3:initial_magmoms:R:1 pbc="T T T"
Si       1.33910316       1.34348517      -1.37403664       0.00000000
Si      -1.27376397       1.40245497       1.39657600       0.00000000
Si      -1.37495745      -1.37033109      -1.37137479       0.00000000
Si       1.38926007      -1.28681226       1.49686232       0.00000000
Si      -2.28918483      -0.45623403       2.55365404       0.00000000
Si      -0.47886084      -2.06602812       2.88337858       0.00000000
Si       2.70293454       2.69695611       0.00217788       0.00000000
Si       2.68429878      -2.73079044       0.00722504       0.00000000
Si       2.69646741      -0.00855225      -2.73099592       0.00000000
Si      -0.01785384       2.70453096      -2.73085764       0.00000000
