10
Lattice="16.28999089631971 0.0 0.0 0.0 16.28999089631971 0.0 0.0 0.0 34.56954931742767" Properties=species:S:1:pos:R:3:initial_magmoms:R:1 pbc="T T T"
Si       1.61407836      -0.96456348      -1.40186515       0.00000000
Si      -1.12629060      -1.78974972       1.11075481       0.00000000
Si      -1.08602172       2.02672754       0.72143233       0.00000000
Si      -1.34500014       1.61576505      -1.64091371       0.00000000
Si       2.57452047      -0.25098003       0.88342533       0.00000000
Si       0.69768441      -3.12047982       1.91159344       0.00000000
Si       0.06245586      -2.31458094      -3.03237342       0.00000000
Si      -2.07762660      -0.84545100       3.08958606       0.00000000
Si      -2.48891652      -2.96901540      -0.45479724       0.00000000
Si       0.62775144       3.82007735       0.52773903       0.00000000
