10
Lattice="16.28999089631971 0.0 0.0 0.0 16.28999089631971 0.0 0.0 0.0 34.56954931742767" Properties=species:S:1:pos:R:3:initial_magmoms:R:1 pbc="T T T"
Si       1.94259879       1.14497523       0.57547961       0.00000000
Si      -1.19900916      -1.49299479       1.33034071       0.00000000
Si      -1.82397501       1.33073010      -0.80083863       0.00000000
Si       0.79860096      -2.11424652      -1.06356735       0.00000000
Si      -1.53277497      -2.51333523      -0.82735349       0.00000000
Si       1.87683606       2.86949979      -1.02816811       0.00000000
Si      -0.84675420       2.09769588       2.78084524       0.00000000
Si       1.63051497       1.81446165       2.78537385       0.00000000
Si      -0.69768441       3.12047982      -1.91159344       0.00000000
Si      -2.77531101       2.27502882       1.17799262       0.00000000
