10
Lattice="16.28999089631971 0.0 0.0 0.0 16.28999089631971 0.0 0.0 0.0 34.56954931742767" Properties=species:S:1:pos:R:3:initial_magmoms:R:1 pbc="T T T"
Si       1.32167286      -1.59347151      -1.08299545       0.00000000
Si      -1.35922131      -1.29191103       1.41204385       0.00000000
Si      -0.96563862       1.85070690      -1.08140525       0.00000000
Si       1.36593279       1.43224938       1.45164675       0.00000000
Si      -0.33111054      -2.77705404      -2.37174897       0.00000000
Si       2.78220168      -0.51877134      -2.54304118       0.00000000
Si      -3.17163042      -2.19434445       0.16501096       0.00000000
Si      -0.00286704       2.68153997       2.85026927       0.00000000
Si      -2.70438435      -0.01712079       2.83143231       0.00000000
Si       2.73176784      -0.01557324       2.82075377       0.00000000
