10
Lattice="16.28999089631971 0.0 0.0 0.0 16.28999089631971 0.0 0.0 0.0 34.56954931742767" Properties=species:S:1:pos:R:3:initial_magmoms:R:1 pbc="T T T"
Si       1.35700587      -1.35743116      -1.35737411       0.00000000
Si      -1.35775521       1.35746905      -1.35706299       0.00000000
Si      -1.35713619      -1.35785470       1.35778895       0.00000000
Si       1.35746199       1.35803920       1.35730497       0.00000000
Si      -0.00213399      -2.71419268      -2.71384942       0.00000000
Si      -2.71463076      -0.00130774      -2.71391856       0.00000000
Si       2.71482624       2.71466877       0.00062225       0.00000000
Si       2.71476108      -2.71503976       0.00038027       0.00000000
Si       2.71498914       0.00022631      -2.71485193       0.00000000
Si      -2.71520091      -2.71490944       0.00058768       0.00000000
