10
Lattice="16.28999089631971 0.0 0.0 0.0 16.28999089631971 0.0 0.0 0.0 34.56954931742767" Properties=species:S:1:pos:R:3:initial_magmoms:R:1 pbc="T T T"
Si      -1.53890001      -1.08703170       1.31080890       0.00000000
Si      -1.38318390       1.29336084      -1.40915933       0.00000000
Si       1.34890974      -1.42447416      -1.40238369       0.00000000
Si       0.53906868       1.19905803       2.32791475       0.00000000
Si       0.34479414      -1.65870319       2.89205554       0.00000000
Si       2.79660204       1.04257629       1.86952227       0.00000000
Si      -0.01555695       2.65002462      -2.78333425       0.00000000
Si      -2.68356573      -2.75351385       0.00636080       0.00000000
Si       2.72003904       2.73520503       0.04974561       0.00000000
Si       2.75802732      -2.69668863       0.07805809       0.00000000
