10
Lattice="16.28999089631971 0.0 0.0 0.0 16.28999089631971 0.0 0.0 0.0 34.56954931742767" Properties=species:S:1:pos:R:3:initial_magmoms:R:1 pbc="T T T"
Si      -0.59312772       2.11616874      -0.82873627       0.00000000
Si       0.52689353      -0.99955440      -2.07856445       0.00000000
Si       1.67459408       0.67531824       1.62511542       0.00000000
Si      -1.61063370      -1.34420193       1.23354592       0.00000000
Si       1.11974039       3.57966234      -0.27199337       0.00000000
Si      -2.64384324       2.67740811       0.11833163       0.00000000
Si      -1.13160996      -3.58877564       0.74773977       0.00000000
Si       2.64039560      -1.97567075      -1.99321219       0.00000000
Si       1.60842410       2.99170737       1.94972367       0.00000000
Si       0.39189830       0.58916043      -3.90608470       0.00000000
