10
Lattice="16.28999089631971 0.0 0.0 0.0 16.28999089631971 0.0 0.0 0.0 34.56954931742767" Properties=species:S:1:pos:R:3:initial_magmoms:R:1 pbc="T T T"
Si      -1.35720135       1.35718506      -1.35810007       0.00000000
Si      -1.35713619      -1.35824391       1.35751239       0.00000000
Si       1.35796698      -1.35755973      -1.35744325       0.00000000
Si       1.35803214       1.35861858       1.35654444       0.00000000
Si      -2.71404432      -0.00045612      -2.71523220       0.00000000
Si      -2.71498914       2.71440270      -0.00024199       0.00000000
Si       0.00009774      -2.71453302      -2.71495564       0.00000000
Si       2.71524978      -0.00060273      -2.71454081       0.00000000
Si      -2.71485882      -2.71529865      -0.00048397       0.00000000
Si       2.71523349       2.71515204      -0.00031113       0.00000000
