10
Lattice="16.28999089631971 0.0 0.0 0.0 16.28999089631971 0.0 0.0 0.0 34.56954931742767" Properties=species:S:1:pos:R:3:initial_magmoms:R:1 pbc="T T T"
Si      -1.35482301       1.35729909      -1.36259412       0.00000000
Si       1.36094805      -1.35853713      -1.36211014       0.00000000
Si      -1.36699164      -1.36493910       1.37562684       0.00000000
Si       1.37319813       1.35954711       1.37673307       0.00000000
Si      -2.71218726       2.70933651      -0.00563484       0.00000000
Si      -2.71217097      -2.71546155      -0.00349153       0.00000000
Si       2.71643895       2.71220355      -0.00335325       0.00000000
Si      -2.71187775      -0.00169416      -2.71962253       0.00000000
Si       0.00275301       2.71319724      -2.71986452       0.00000000
Si       2.71870326      -2.71630863      -0.00259272       0.00000000
