10
Lattice="16.28999089631971 0.0 0.0 0.0 16.28999089631971 0.0 0.0 0.0 34.56954931742767" Properties=species:S:1:pos:R:3:initial_magmoms:R:1 pbc="T T T"
Si       1.14792372       1.94681790       0.68897150       0.00000000
Si       1.04969502      -1.78170246       1.14470213       0.00000000
Si       0.35144046      -0.12437415      -2.33693741       0.00000000
Si      -2.32841115      -0.08649990       0.60320440       0.00000000
Si       0.82792296       1.94641065       2.98905775       0.00000000
Si      -0.94227876       1.61010360      -3.25987575       0.00000000
Si       0.24361695      -3.74552712       0.15711869       0.00000000
Si       3.34896336      -1.49661117       0.86527630       0.00000000
Si      -0.21036906       3.82189464      -0.07411716       0.00000000
Si      -2.48916087       0.05740596       2.95407335       0.00000000
