10
Lattice="16.28999089631971 0.0 0.0 0.0 16.28999089631971 0.0 0.0 0.0 34.56954931742767" Properties=species:S:1:pos:R:3:initial_magmoms:R:1 pbc="T T T"
Si       1.35677781       1.33907058       1.36923147       0.00000000
Si      -1.35707103      -1.37534841       1.36663876       0.00000000
Si       1.37798739      -1.43159778      -1.29934563       0.00000000
Si      -1.36583505       1.44782262      -1.36910702       0.00000000
Si       2.71782360       2.69498502      -0.02788036       0.00000000
Si      -0.00110772       2.69790093       2.72899089       0.00000000
Si      -2.73463488       2.69711321       0.02951550       0.00000000
Si       2.71433754      -0.01694160       2.72899089       0.00000000
Si      -2.71823085      -0.01651806       2.72999340       0.00000000
Si      -2.72621295      -2.73571002      -0.01436711       0.00000000
