10
Lattice="16.28999089631971 0.0 0.0 0.0 16.28999089631971 0.0 0.0 0.0 34.56954931742767" Properties=species:S:1:pos:R:3:initial_magmoms:R:1 pbc="T T T"
Si       1.35008262       1.36533590      -1.37427863       0.00000000
Si      -1.36383138      -1.35347094      -1.37621453       0.00000000
Si      -1.31934339       1.39343864       1.41769801       0.00000000
Si       1.45573956      -1.26040617       1.47881701       0.00000000
Si      -2.70293454      -2.69695611      -0.00217788       0.00000000
Si       2.72155401      -2.70326034       0.00615338       0.00000000
Si       2.71313208       2.72247832       0.00895352       0.00000000
Si      -0.00646713      -2.70550836      -2.73317381       0.00000000
Si       2.70847314       0.00747711      -2.73303553       0.00000000
Si      -2.72078838       0.00757485      -2.73303553       0.00000000
