10
Lattice="16.28999089631971 0.0 0.0 0.0 16.28999089631971 0.0 0.0 0.0 34.56954931742767" Properties=species:S:1:pos:R:3:initial_magmoms:R:1 pbc="T T T"
Si      -1.98270477      -1.36977723       0.16316836       0.00000000
Si       1.70422722      -1.76037885      -0.11366474       0.00000000
Si       0.02624319       1.26203517      -2.14262186       0.00000000
Si       1.14360687       1.03312809       2.14397008       0.00000000
Si       1.28827836       3.08911898       0.98353880       0.00000000
Si      -0.73625913       3.34380010      -0.84761125       0.00000000
Si       0.52927839      -3.20660505       1.64399041       0.00000000
Si      -1.87413192      -2.27776554      -2.31719819       0.00000000
Si      -0.98953605      -0.40485537      -3.67218700       0.00000000
Si       3.89498787      -0.91478124       0.50042908       0.00000000
