10
Lattice="16.28999089631971 0.0 0.0 0.0 16.28999089631971 0.0 0.0 0.0 34.56954931742767" Properties=species:S:1:pos:R:3:initial_magmoms:R:1 pbc="T T T"
Si       1.25677350      -1.75762584      -0.92708669       0.00000000
Si       1.25693640       0.07350048       2.01194889       0.00000000
Si       0.64301517       2.16832932      -0.79572233       0.00000000
Si      -2.36185452      -0.31956093       0.28803365       0.00000000
Si      -2.23562331      -0.28750221       2.66493348       0.00000000
Si       3.30574599       0.69035391       1.12945695       0.00000000
Si       3.44901654      -0.86899005      -0.65633783       0.00000000
Si      -1.49810985       3.27910094      -0.81660235       0.00000000
Si      -3.26329425       1.58508216      -0.86161193       0.00000000
Si       0.60082407       1.94051367       3.28645975       0.00000000
