10
Lattice="16.28999089631971 0.0 0.0 0.0 16.28999089631971 0.0 0.0 0.0 34.56954931742767" Properties=species:S:1:pos:R:3:initial_magmoms:R:1 pbc="T T T"
Si       0.12623121       0.03205872       2.37689983       0.00000000
Si      -0.90143973       1.90464309      -1.14964557       0.00000000
Si       2.36185452       0.31956093      -0.28803365       0.00000000
Si      -0.60567849      -2.17973232      -0.80885877       0.00000000
Si      -0.58935591       1.23515667      -3.35953982       0.00000000
Si       0.67469922       2.33968383       2.72038306       0.00000000
Si       0.86374467       3.59866187      -1.10463600       0.00000000
Si       1.48452399      -1.84301802       3.13998849       0.00000000
Si       0.68804073      -3.91421007       0.11407958       0.00000000
Si      -2.93247693      -2.57854410      -0.77864496       0.00000000
