10
Lattice="16.28999089631971 0.0 0.0 0.0 16.28999089631971 0.0 0.0 0.0 34.56954931742767" Properties=species:S:1:pos:R:3:initial_magmoms:R:1 pbc="T T T"
Si       0.77828733      -1.47215988      -1.67925137       0.00000000
Si      -2.30980797      -0.54043704      -0.17578626       0.00000000
Si       1.05562458       2.08776617       0.63338364       0.00000000
Si       0.46081152      -1.08993132       2.21635875       0.00000000
Si      -1.00367577       0.56752472       3.00537459       0.00000000
Si      -1.96099020      -2.78749593       0.49690298       0.00000000
Si      -0.17018163      -3.56120577      -0.84204555       0.00000000
Si      -0.32135283       2.86533674       2.41077801       0.00000000
Si       3.13080768      -1.16945910      -1.73784678       0.00000000
Si      -3.37694958       0.41657507       1.68246634       0.00000000
