10
Lattice="16.28999089631971 0.0 0.0 0.0 16.28999089631971 0.0 0.0 0.0 34.56954931742767" Properties=species:S:1:pos:R:3:initial_magmoms:R:1 pbc="T T T"
Si      -1.43101134       1.23684431       1.48703074       0.00000000
Si      -2.00070522      -0.81850897      -1.09545363       0.00000000
Si       1.27084806      -1.48839842       1.45838294       0.00000000
Si       1.46513889       1.26365765      -1.50322455       0.00000000
Si      -2.74023864       2.59644029       0.05773809       0.00000000
Si       2.67700086       2.66423927      -0.01331965       0.00000000
Si      -0.09431910       2.58651968       2.85832947       0.00000000
Si       2.62436787      -0.12685675       2.85314404       0.00000000
Si      -2.81281059      -2.73556082       0.11715627       0.00000000
Si      -1.73726334      -1.00242144      -3.38660921       0.00000000
