10
Lattice="16.28999089631971 0.0 0.0 0.0 16.28999089631971 0.0 0.0 0.0 34.56954931742767" Properties=species:S:1:pos:R:3:initial_magmoms:R:1 pbc="T T T"
Si       1.35741312       1.35663120       1.35706299       0.00000000
Si      -1.35812988      -1.35779919       1.35685557       0.00000000
Si      -1.36125756       1.35628911      -1.35771981       0.00000000
Si       1.35742941      -1.35708732      -1.36290524       0.00000000
Si      -2.69794980       0.00661374      -2.72901854       0.00000000
Si       2.71396287       2.71391400       0.00006914       0.00000000
Si      -0.00011403       2.71415835       2.71440253       0.00000000
Si      -2.71523349       2.71376739       0.00010371       0.00000000
Si       2.71476841      -0.00074934       2.71460995       0.00000000
Si      -2.71518462      -0.00127062       2.71467909       0.00000000
