10
Lattice="16.28999089631971 0.0 0.0 0.0 16.28999089631971 0.0 0.0 0.0 34.56954931742767" Properties=species:S:1:pos:R:3:initial_magmoms:R:1 pbc="T T T"
Si       1.35766724      -1.35710361       1.35730497       0.00000000
Si      -1.35819245      -1.35726651      -1.35695928       0.00000000
Si       1.35721112       1.35799956      -1.35730497       0.00000000
Si      -1.35774837       1.35783666       1.35733954       0.00000000
Si       2.71260428      -0.00027693       2.71336544       0.00000000
Si      -0.00038119       2.71311579       2.71429882       0.00000000
Si      -2.71374851      -0.00068418       2.71443710       0.00000000
Si      -2.71474220      -2.71454931       0.00003457       0.00000000
Si      -0.00111912      -2.71500543       2.71429882       0.00000000
Si       2.71517810      -2.71463076      -0.00024199       0.00000000
