10
Lattice="16.28999089631971 0.0 0.0 0.0 16.28999089631971 0.0 0.0 0.0 34.56954931742767" Properties=species:S:1:pos:R:3:initial_magmoms:R:1 pbc="T T T"
Si       1.35624024      -1.35674523       1.35955200       0.00000000
Si      -1.34558658      -1.35203742      -1.37505299       0.00000000
Si      -1.35897696       1.35832536       1.35931001       0.00000000
Si       1.35059590       1.35685926      -1.39717751       0.00000000
Si      -2.64942189       0.13385493      -2.74336146       0.00000000
Si       2.71404010      -2.71560816      -0.00138278       0.00000000
Si      -0.00030951      -2.71402803       2.71654584       0.00000000
Si       2.71443269       0.00052128       2.71651127       0.00000000
Si       2.71185073       2.71937115      -0.00203960       0.00000000
Si      -2.71585251       0.00114030       2.71647670       0.00000000
