10
Lattice="16.28999089631971 0.0 0.0 0.0 16.28999089631971 0.0 0.0 0.0 34.56954931742767" Properties=species:S:1:pos:R:3:initial_magmoms:R:1 pbc="T T T"
Si      -1.38305358       1.27340559      -1.46243103       0.00000000
Si       1.34045523      -1.43731557      -1.46184335       0.00000000
Si       0.07656300      -1.69262874       1.81977666       0.00000000
Si       1.83427029       0.99064377       1.47446124       0.00000000
Si      -0.58992606       1.13002101       2.25168885       0.00000000
Si      -2.18097036      -1.53614700       2.27816914       0.00000000
Si       2.67985161       2.62225017      -0.05621012       0.00000000
Si      -2.83838589       2.54614329      -0.00660279       0.00000000
Si      -2.72003904      -2.73520503      -0.04974561       0.00000000
Si      -0.01720224       2.62871730      -2.83425522       0.00000000
