10
Lattice="16.28999089631971 0.0 0.0 0.0 16.28999089631971 0.0 0.0 0.0 34.56954931742767" Properties=species:S:1:pos:R:3:initial_magmoms:R:1 pbc="T T T"
Si      -0.24941619       0.28088847      -2.32563316       0.00000000
Si       2.31089030       0.38802780       0.32039076       0.00000000
Si      -1.67260833       1.35993807       1.05558178       0.00000000
Si      -0.60383772      -2.32593507      -0.25529626       0.00000000
Si      -2.61203634      -0.38695266       2.41202251       0.00000000
Si       1.32777251      -1.26776925      -3.09701852       0.00000000
Si       3.10445765      -0.07490142      -1.89939038       0.00000000
Si      -2.69286732      -2.24513667      -1.31073976       0.00000000
Si      -2.51493165      -0.43194564      -2.83771218       0.00000000
Si       2.55716252       2.69146638       1.00956968       0.00000000
