10
Lattice="16.28999089631971 0.0 0.0 0.0 16.28999089631971 0.0 0.0 0.0 34.56954931742767" Properties=species:S:1:pos:R:3:initial_magmoms:R:1 pbc="T T T"
Si       1.66014648      -0.99846297       1.42316000       0.00000000
Si      -1.06015320      -1.73613933      -1.28439775       0.00000000
Si       0.87658119       1.40196627      -1.75765515       0.00000000
Si      -1.08996390       1.55953944       1.60115871       0.00000000
Si      -0.31918626       3.37128066      -1.40151945       0.00000000
Si       2.20234284       0.90911232       2.79567559       0.00000000
Si      -1.23243624       1.22463333      -3.28614863       0.00000000
Si      -2.68718211      -0.61084242      -2.60046123       0.00000000
Si       0.81782316      -2.79034668      -2.47013396       0.00000000
Si      -0.48462750       3.80479014       0.86175021       0.00000000
