10
Lattice="16.28999089631971 0.0 0.0 0.0 16.28999089631971 0.0 0.0 0.0 34.56954931742767" Properties=species:S:1:pos:R:3:initial_magmoms:R:1 pbc="T T T"
Si       0.25547607      -0.34238322       2.30475314       0.00000000
Si       1.24050209      -1.86939153      -0.77259529       0.00000000
Si      -2.33955351      -0.16475706      -0.43944836       0.00000000
Si       0.49787127       2.22814620      -0.74971024       0.00000000
Si      -0.68115006      -2.56852575      -2.04658760       0.00000000
Si      -2.24334477      -0.81296874      -2.66441493       0.00000000
Si      -0.43104969       3.43007127       1.13526463       0.00000000
Si       1.96834418       1.12111038       2.86149604       0.00000000
Si      -1.79523945       0.21885615       3.25182104       0.00000000
Si      -2.31054102       2.24736840       2.03988111       0.00000000
