10
Lattice="16.28999089631971 0.0 0.0 0.0 16.28999089631971 0.0 0.0 0.0 34.56954931742767" Properties=species:S:1:pos:R:3:initial_magmoms:R:1 pbc="T T T"
Si      -1.21471272      -1.63043352      -1.27869377       0.00000000
Si       1.30536657      -1.66216644       1.19928748       0.00000000
Si      -1.60376679       1.18097613       1.43315061       0.00000000
Si       1.52660106       1.65928311      -1.56665828       0.00000000
Si       2.51722854      -0.26158482       2.68919237       0.00000000
Si      -3.28162050      -0.48725019      -1.77818947       0.00000000
Si      -0.18453312       2.50892064       2.81571699       0.00000000
Si       0.16226469      -2.40800409      -3.05608815       0.00000000
Si      -0.15977232      -2.92582409       2.70251202       0.00000000
Si      -2.90001096      -0.32938380       2.76025011       0.00000000
