10
Lattice="16.28999089631971 0.0 0.0 0.0 16.28999089631971 0.0 0.0 0.0 34.56954931742767" Properties=species:S:1:pos:R:3:initial_magmoms:R:1 pbc="T T T"
Si       1.35669636       1.35694071      -1.35796180       0.00000000
Si      -1.35819504      -1.35775521      -1.35785809       0.00000000
Si       1.35775521      -1.35777150       1.35951743       0.00000000
Si      -1.36094805       1.35853713       1.36211014       0.00000000
Si      -0.00058644       2.71386513      -2.71533591       0.00000000
Si       2.71393029      -0.00029322      -2.71557789       0.00000000
Si      -2.71539639      -2.71428867      -0.00100252       0.00000000
Si       2.71458189       2.71551042      -0.00062225       0.00000000
Si      -2.71516833      -0.00086337      -2.71540505       0.00000000
Si      -0.00107514      -2.71547784      -2.71519763       0.00000000
