10
Lattice="16.28999089631971 0.0 0.0 0.0 16.28999089631971 0.0 0.0 0.0 34.56954931742767" Properties=species:S:1:pos:R:3:initial_magmoms:R:1 pbc="T T T"
Si       1.89624789      -1.14720696       0.84208012       0.00000000
Si      -1.28381490      -0.81213795      -1.83322422       0.00000000
Si      -1.81921833      -0.34569009       1.52088817       0.00000000
Si      -0.16184115       2.38765788       0.78953438       0.00000000
Si       1.32110271      -3.25490490      -0.05911396       0.00000000
Si       1.30670235      -0.81270810       3.34709477       0.00000000
Si      -0.53235720       0.85841784       3.55482331       0.00000000
Si      -2.02616649      -2.98141209      -1.35937915       0.00000000
Si       2.95046665       0.99549819      -2.31218560       0.00000000
Si      -3.68243595       0.92678697       0.90900681       0.00000000
