10
Lattice="16.28999089631971 0.0 0.0 0.0 16.28999089631971 0.0 0.0 0.0 34.56954931742767" Properties=species:S:1:pos:R:3:initial_magmoms:R:1 pbc="T T T"
Si       1.33877314       1.34516304       1.39315362       0.00000000
Si      -1.37556018      -1.36790388       1.39011149       0.00000000
Si      -1.26174195       1.35145098      -1.55241908       0.00000000
Si       1.43183791      -1.31002551      -1.55395396       0.00000000
Si      -2.24689599      -0.56360142      -2.69623419       0.00000000
Si      -0.40783644      -2.23472736      -2.90396272       0.00000000
Si       2.69543204       2.69505230       0.02529110       0.00000000
Si       2.69165276      -2.72556135       0.00750851       0.00000000
Si      -2.72958498       2.70295083      -0.00613610       0.00000000
Si       2.69649089      -0.00750969       2.75101170       0.00000000
