10
Lattice="16.28999089631971 0.0 0.0 0.0 16.28999089631971 0.0 0.0 0.0 34.56954931742767" Properties=species:S:1:pos:R:3:initial_magmoms:R:1 pbc="T T T"
Si       1.35724400       1.35604476      -1.35727040       0.00000000
Si      -1.35909099       1.35523026       1.35937915       0.00000000
Si      -1.35788553      -1.35856971      -1.35733954       0.00000000
Si       1.35935163      -1.35773892       1.35986312       0.00000000
Si       2.70064647       0.00418653       2.71699525       0.00000000
Si       0.00039096       2.71360449      -2.71467909       0.00000000
Si      -2.71541268       2.71331127       0.00027656       0.00000000
Si       2.71526837       2.71419093       0.00062225       0.00000000
Si       2.71491325      -0.00104256      -2.71471366       0.00000000
Si      -2.71516833      -0.00164529      -2.71471366       0.00000000
