10
Lattice="16.28999089631971 0.0 0.0 0.0 16.28999089631971 0.0 0.0 0.0 34.56954931742767" Properties=species:S:1:pos:R:3:initial_magmoms:R:1 pbc="T T T"
Si       1.35729909      -1.35710361      -1.35744325       0.00000000
Si       1.35725022       1.35707103       1.35758153       0.00000000
Si      -1.35739846       1.35760860      -1.35761610       0.00000000
Si      -1.35806472      -1.35984033       1.35685557       0.00000000
Si       2.71472850      -0.00004887      -2.71440253       0.00000000
Si      -2.71455594      -0.00001629      -2.71485193       0.00000000
Si      -0.00047241      -2.71495656      -2.71474823       0.00000000
Si      -2.71506771       2.71469592      -0.00017285       0.00000000
Si      -2.71296008       0.00091224       2.71696068       0.00000000
Si       2.71494027       2.71500543       0.00017285       0.00000000
