10
Lattice="16.28999089631971 0.0 0.0 0.0 16.28999089631971 0.0 0.0 0.0 34.56954931742767" Properties=species:S:1:pos:R:3:initial_magmoms:R:1 pbc="T T T"
Si      -1.40225949       1.32118416       1.30994466       0.00000000
Si      -1.35560493      -1.34568432      -1.37047598       0.00000000
Si       1.35651717       1.36920708      -1.36881664       0.00000000
Si       1.35321030      -1.33977105       1.52123387       0.00000000
Si       0.44228979       2.28330414       2.55621218       0.00000000
Si      -2.45656132      -0.26525007       2.69449046       0.00000000
Si       2.25261378       0.67351005       2.88593673       0.00000000
Si       2.71257822      -2.69596242       0.01164994       0.00000000
Si      -2.71845891      -2.70304857       0.00546199       0.00000000
Si      -0.00446346      -2.70122409      -2.72975142       0.00000000
