10
Lattice="16.28999089631971 0.0 0.0 0.0 16.28999089631971 0.0 0.0 0.0 34.56954931742767" Properties=species:S:1:pos:R:3:initial_magmoms:R:1 pbc="T T T"
Si      -1.54638756       0.79625520       1.62006826       0.00000000
Si       1.42175536       1.92801924      -0.38427532       0.00000000
Si       1.20996907      -1.73491758       1.27444172       0.00000000
Si      -1.41135975      -0.31351734      -2.02826573       0.00000000
Si       0.39637642       2.32863921      -2.67592660       0.00000000
Si      -0.23736159       2.12138154       3.04350482       0.00000000
Si       3.48094168      -1.41367878       0.57240292       0.00000000
Si       0.97031059       3.39183864       1.47221422       0.00000000
Si      -2.47760541      -1.15887060       2.69296940       0.00000000
Si      -0.68881776      -2.27038617      -3.16370321       0.00000000
