10
Lattice="16.28999089631971 0.0 0.0 0.0 16.28999089631971 0.0 0.0 0.0 34.56954931742767" Properties=species:S:1:pos:R:3:initial_magmoms:R:1 pbc="T T T"
Si      -1.55613876       0.14483439      -1.71357895       0.00000000
Si       0.84325511      -2.16412650       0.01265246       0.00000000
Si       2.07715745       1.15634565      -0.16634876       0.00000000
Si      -0.97647540       0.06344955       2.21359319       0.00000000
Si       1.51762853       2.75401998       1.51383598       0.00000000
Si      -3.43563009      -1.03786848      -0.80896248       0.00000000
Si      -0.86961300      -3.62762010      -0.54409044       0.00000000
Si       1.33193882      -2.75208147       2.23436950       0.00000000
Si      -0.62721780      -1.05709068      -3.59855382       0.00000000
Si      -0.40133021       2.17114749       3.11478727       0.00000000
