10
Lattice="16.28999089631971 0.0 0.0 0.0 16.28999089631971 0.0 0.0 0.0 34.31052061344573" Properties=species:S:1:pos:R:3:initial_magmoms:R:1 pbc="T T T"
Si      -1.35353610       1.35617874      -1.35907479       0.00000000
Si      -1.35614250      -1.35809757       1.35749651       0.00000000
Si       1.35689184      -1.35316170      -1.36185395       0.00000000
Si       1.35878148       1.35710402       1.35739358       0.00000000
Si       0.00636939       2.69095202      -2.73464952       0.00000000
Si      -2.71357191      -0.00026275       2.71458129       0.00000000
Si       0.00115659      -2.71427265       2.71458129       0.00000000
Si       0.00125433       2.71463768       2.71434111       0.00000000
Si      -2.71432125      -2.71510344      -0.00003431       0.00000000
Si       2.71518462       0.00011030       2.71513026       0.00000000
