10
Lattice="16.28999089631971 0.0 0.0 0.0 16.28999089631971 0.0 0.0 0.0 34.31052061344573" Properties=species:S:1:pos:R:3:initial_magmoms:R:1 pbc="T T T"
Si      -2.32896501       0.45885672       0.01032747       0.00000000
Si       1.50130269       1.75752810       0.58207831       0.00000000
Si      -0.11228697      -2.17667699       1.02183650       0.00000000
Si      -0.88413975       0.90916119      -2.84132442       0.00000000
Si      -3.23415144      -1.38576586      -1.23675772       0.00000000
Si       0.03764619      -3.52900763      -1.21397552       0.00000000
Si       1.95168861      -2.34097793       2.15514794       0.00000000
Si       2.37962691       2.45786778      -1.50101749       0.00000000
Si       3.40254117       1.10180673       1.78116305       0.00000000
Si      -1.35764118      -2.11127264       3.10856922       0.00000000
