10
Lattice="16.28999089631971 0.0 0.0 0.0 16.28999089631971 0.0 0.0 0.0 34.31052061344573" Properties=species:S:1:pos:R:3:initial_magmoms:R:1 pbc="T T T"
Si      -1.73444517      -0.92984949       1.28064090       0.00000000
Si       0.28010655      -1.22388399      -2.00318655       0.00000000
Si       0.29949165       2.35346517      -0.19807475       0.00000000
Si       1.68075333       0.21017358       2.00112792       0.00000000
Si       3.24935001      -0.54185427       0.28385110       0.00000000
Si       1.39905036       2.55616164       1.88598175       0.00000000
Si       1.13824746      -3.25788271      -1.34713472       0.00000000
Si      -3.58785621       0.49028013       1.40844766       0.00000000
Si       1.81723095      -0.21077631      -3.49253847       0.00000000
Si      -1.76425587      -1.81149687      -3.04173228       0.00000000
