10
Lattice="16.28999089631971 0.0 0.0 0.0 16.28999089631971 0.0 0.0 0.0 34.31052061344573" Properties=species:S:1:pos:R:3:initial_magmoms:R:1 pbc="T T T"
Si       0.65277288      -1.82483838      -1.32339183       0.00000000
Si       0.78817536      -0.00825903       2.25989801       0.00000000
Si      -0.66430620       1.73944620      -1.50671304       0.00000000
Si      -2.18590623      -0.88528005       0.43934646       0.00000000
Si       2.77806402       1.31315319       0.16496508       0.00000000
Si      -0.49764321      -1.00678716      -3.21719638       0.00000000
Si      -2.51222751       0.02388114       2.54580774       0.00000000
Si       0.25951599       3.64400784      -0.66713414       0.00000000
Si       0.32518098       1.15820271      -3.51981535       0.00000000
Si       2.64039723      -1.44199080       2.19041917       0.00000000
