10
Lattice="16.28999089631971 0.0 0.0 0.0 16.28999089631971 0.0 0.0 0.0 34.31052061344573" Properties=species:S:1:pos:R:3:initial_magmoms:R:1 pbc="T T T"
Si       1.40328576      -1.88230950       0.14204563       0.00000000
Si       0.21905163       1.92383271       1.35962376       0.00000000
Si      -0.54692046       0.76250232      -2.18458638       0.00000000
Si      -1.99257651      -0.55050426       1.19445282       0.00000000
Si      -2.23076889       2.16979542      -1.41839771       0.00000000
Si      -3.02440140       1.47114990       0.70274848       0.00000000
Si       0.43305336      -3.05367453      -1.64628832       0.00000000
Si       1.48111938       1.89929997      -2.53421078       0.00000000
Si       0.52597152      -2.88135891       2.02655203       0.00000000
Si       1.23507522       0.87259014       3.24859053       0.00000000
