10
Lattice="16.28999089631971 0.0 0.0 0.0 16.28999089631971 0.0 0.0 0.0 34.31052061344573" Properties=species:S:1:pos:R:3:initial_magmoms:R:1 pbc="T T T"
Si      -1.79273079       1.59464439      -0.36578466       0.00000000
Si       1.73424969       0.85879251      -1.53958254       0.00000000
Si       1.62298899       0.08548992       1.87949706       0.00000000
Si      -1.12267422      -2.20457457      -0.59113629       0.00000000
Si      -0.80712063      -2.57929344       1.79221105       0.00000000
Si      -0.09917352      -0.74575620       3.24575446       0.00000000
Si      -1.40566410       3.07118628       1.73621624       0.00000000
Si      -3.03505506       0.66402927      -2.51695258       0.00000000
Si       3.98055924       0.38620332      -0.78680930       0.00000000
Si       1.87281243      -0.25427061      -3.63015804       0.00000000
