10
Lattice="16.28999089631971 0.0 0.0 0.0 16.28999089631971 0.0 0.0 0.0 34.31052061344573" Properties=species:S:1:pos:R:3:initial_magmoms:R:1 pbc="T T T"
Si       0.03861382       2.31498167      -0.03448209       0.00000000
Si      -1.59406025      -0.71174920      -1.53783270       0.00000000
Si      -0.86754254      -0.40739824       2.14938377       0.00000000
Si       1.74920880      -1.49053492      -0.55727179       0.00000000
Si      -1.92644141      -2.92514384      -0.72024685       0.00000000
Si       0.37791008      -3.49071635      -0.72127617       0.00000000
Si       1.96501872       2.80426811       1.19719766       0.00000000
Si       0.69455510      -1.89910190       3.12771450       0.00000000
Si      -3.43641038       0.77867177      -1.36346654       0.00000000
Si       0.15481527       3.04084778      -2.26916186       0.00000000
