10
Lattice="16.28999089631971 0.0 0.0 0.0 16.28999089631971 0.0 0.0 0.0 34.31052061344573" Properties=species:S:1:pos:R:3:initial_magmoms:R:1 pbc="T T T"
Si       1.35545832       1.35697329       1.35653581       0.00000000
Si      -1.35729909       1.35617508      -1.35708478       0.00000000
Si       1.35679410      -1.35812988      -1.35732495       0.00000000
Si      -1.35865116      -1.35658233       1.35746220       0.00000000
Si       0.00355122       2.71228500       2.71180213       0.00000000
Si       2.71402803       2.71438295       0.00054897       0.00000000
Si      -2.71472850       2.71400989       0.00000000       0.00000000
Si      -0.00115659       2.71427265      -2.71458129       0.00000000
Si      -2.71625976       0.00017919       2.71324318       0.00000000
Si       2.71461447      -0.00114030      -2.71492439       0.00000000
