10
Lattice="16.28999089631971 0.0 0.0 0.0 16.28999089631971 0.0 0.0 0.0 34.31052061344573" Properties=species:S:1:pos:R:3:initial_magmoms:R:1 pbc="T T T"
Si      -1.35760860       1.35676152       1.35578098       0.00000000
Si       1.35865116       1.35658233      -1.35746220       0.00000000
Si      -1.35687555      -1.35899325      -1.35742789       0.00000000
Si       1.35698958      -1.35966114       1.36319206       0.00000000
Si       0.01576872       2.70096345       2.70380778       0.00000000
Si      -2.70721555      -0.00917127       2.71712027       0.00000000
Si      -2.71193639       2.71391400      -0.00051466       0.00000000
Si       0.00135207       2.71275741      -2.71454698       0.00000000
Si       2.71410948       2.71355562      -0.00092638       0.00000000
Si      -2.71384884      -0.00141723      -2.71451267       0.00000000
