10
Lattice="16.28999089631971 0.0 0.0 0.0 16.28999089631971 0.0 0.0 0.0 34.31052061344573" Properties=species:S:1:pos:R:3:initial_magmoms:R:1 pbc="T T T"
Si       2.06397558      -0.16430094       1.13331144       0.00000000
Si       0.11228697       2.17667699      -1.02183650       0.00000000
Si      -1.24535421       0.06540435       2.08673272       0.00000000
Si       0.14993316      -1.35233064      -2.23581201       0.00000000
Si      -2.21667804       2.63553371      -1.01150902       0.00000000
Si      -0.32610951       1.89259079       3.16181917       0.00000000
Si       1.77567516       0.95530166       3.15083980       0.00000000
Si       2.33688195      -2.41535088       1.68125076       0.00000000
Si      -1.37500632      -2.14485543       2.79706382       0.00000000
Si       2.54899404      -1.75404204      -2.30364395       0.00000000
