10
Lattice="16.28999089631971 0.0 0.0 0.0 16.28999089631971 0.0 0.0 0.0 34.31052061344573" Properties=species:S:1:pos:R:3:initial_magmoms:R:1 pbc="T T T"
Si      -1.42964298      -1.89851805       0.30810865       0.00000000
Si      -0.17643699       0.63495162      -2.30632017       0.00000000
Si       2.39906088      -0.40171140      -0.06783194       0.00000000
Si      -0.14993316       1.35233064       2.23581201       0.00000000
Si      -2.01613185       2.21596521      -2.22301418       0.00000000
Si      -0.03764619       3.52900763       1.21397552       0.00000000
Si       2.76889275      -1.83809844       1.81190530       0.00000000
Si      -3.27179763       2.14324176      -0.02278220       0.00000000
Si      -0.63368100      -3.19823199       2.18468931       0.00000000
Si       3.50780715       1.79284793      -0.14616290       0.00000000
