10
Lattice="16.28999089631971 0.0 0.0 0.0 16.28999089631971 0.0 0.0 0.0 34.31052061344573" Properties=species:S:1:pos:R:3:initial_magmoms:R:1 pbc="T T T"
Si       1.68384843      -1.40729310      -0.76618866       0.00000000
Si       0.12965211       2.21025978      -0.71033111       0.00000000
Si      -1.94222412       0.17648586      -1.27882244       0.00000000
Si      -0.79363251      -0.69864552       2.12114619       0.00000000
Si      -2.21653143       2.48105759      -0.64321969       0.00000000
Si       2.23076889      -2.16979542       1.41839771       0.00000000
Si       2.44982052      -0.24596271       2.77802148       0.00000000
Si       0.23819238      -2.72029968       2.61285054       0.00000000
Si       1.37500632       2.14485543      -2.79706382       0.00000000
Si       0.89125848      -2.40570720      -2.84818653       0.00000000
