10
Lattice="16.28999089631971 0.0 0.0 0.0 16.28999089631971 0.0 0.0 0.0 34.31052061344573" Properties=species:S:1:pos:R:3:initial_magmoms:R:1 pbc="T T T"
Si       0.11572416       1.05944526      -2.09119309       0.00000000
Si      -1.93730454      -0.91294047       1.16546869       0.00000000
Si       0.81961506       1.96339853       1.28037469       0.00000000
Si       1.82439855      -1.77148863      -0.08248254       0.00000000
Si      -0.54538920      -2.02364154       2.70666726       0.00000000
Si       2.18468448       0.71535906       2.72396320       0.00000000
Si      -1.44010116      -0.33669801      -3.40027742       0.00000000
Si       0.71749305      -3.44658933       1.24292473       0.00000000
Si       3.52406457      -0.66119481       1.38159421       0.00000000
Si       2.04931458       3.39577172      -0.20373599       0.00000000
