10
Lattice="16.28999089631971 0.0 0.0 0.0 16.28999089631971 0.0 0.0 0.0 34.31052061344573" Properties=species:S:1:pos:R:3:initial_magmoms:R:1 pbc="T T T"
Si      -1.35672894      -1.35689434      -1.35856013       0.00000000
Si       1.35922131       1.35820318      -1.35801116       0.00000000
Si       1.36119240      -1.35690669       1.36079032       0.00000000
Si      -1.35943308       1.36543594       1.35821703       0.00000000
Si      -2.71313208       0.00009937      -2.71629681       0.00000000
Si      -2.71529865      -2.71430400      -0.00257329       0.00000000
Si      -2.71612944       2.71390586      -0.00150966       0.00000000
Si       0.00188964      -2.71436916      -2.71643406       0.00000000
Si       2.71606428      -2.71598187      -0.00061759       0.00000000
Si       0.00159642       2.71599098      -2.71626250       0.00000000
