10
Lattice="16.28999089631971 0.0 0.0 0.0 16.28999089631971 0.0 0.0 0.0 34.31052061344573" Properties=species:S:1:pos:R:3:initial_magmoms:R:1 pbc="T T T"
Si      -1.35669636       1.34846991      -1.35972669       0.00000000
Si       1.35943308      -1.36543594      -1.35821703       0.00000000
Si       1.36392912       1.35439947       1.36628000       0.00000000
Si      -1.35180936      -1.38133498       1.36809846       0.00000000
Si       2.59887402      -0.14320539       2.79212311       0.00000000
Si      -2.70457983       2.70692559      -0.00274484       0.00000000
Si       0.00333945       2.70723510      -2.71684578       0.00000000
Si       2.72215674       2.70510111      -0.00497503       0.00000000
Si      -2.71122615      -0.00780291      -2.71756630       0.00000000
Si      -2.70777267      -2.72442824      -0.00552400       0.00000000
