10
Lattice="16.28999089631971 0.0 0.0 0.0 16.28999089631971 0.0 0.0 0.0 34.31052061344573" Properties=species:S:1:pos:R:3:initial_magmoms:R:1 pbc="T T T"
Si      -0.85814091       2.03399872      -0.65605183       0.00000000
Si      -1.74508254      -1.04276592       1.09292793       0.00000000
Si       1.72999800       0.39232184       1.57107962       0.00000000
Si       0.20755089      -1.14293313      -2.06765606       0.00000000
Si      -1.00800891      -3.11830740      -1.54332239       0.00000000
Si      -2.90250333       1.44638584      -1.69459756       0.00000000
Si      -1.13824746       3.25788271       1.34713472       0.00000000
Si      -0.83549781      -2.89723581       2.17597443       0.00000000
Si       0.67898349       3.04710640      -2.14540374       0.00000000
Si       2.11110255       2.71602844       1.63098582       0.00000000
