10
Lattice="16.28999089631971 0.0 0.0 0.0 16.28999089631971 0.0 0.0 0.0 34.31052061344573" Properties=species:S:1:pos:R:3:initial_magmoms:R:1 pbc="T T T"
Si       0.09638793      -2.31293565      -0.11264150       0.00000000
Si       0.23796432       0.56819520      -2.28491040       0.00000000
Si       2.17230408       0.65624265       0.74278888       0.00000000
Si      -1.60011783       0.74785761       1.61681557       0.00000000
Si      -1.62680085      -1.11443148       3.06324499       0.00000000
Si      -0.78193629      -3.01327533       1.97045430       0.00000000
Si      -1.25094168       2.46995496      -2.43313193       0.00000000
Si      -0.37550079       2.38422069       2.79658348       0.00000000
Si       3.37945824      -1.37966526       0.96944430       0.00000000
Si      -1.02421746      -3.07167498      -2.04418765       0.00000000
