10
Lattice="16.28999089631971 0.0 0.0 0.0 16.28999089631971 0.0 0.0 0.0 34.31052061344573" Properties=species:S:1:pos:R:3:initial_magmoms:R:1 pbc="T T T"
Si       0.75515553       1.91993940      -1.18155206       0.00000000
Si       1.20715416      -2.03590791       0.22665543       0.00000000
Si      -0.28856106       1.13150340       2.07746887       0.00000000
Si      -2.17230408      -0.65624265      -0.74278888       0.00000000
Si      -1.93433976      -0.08804745      -3.02769927       0.00000000
Si       0.61167321      -2.61273681       2.41443268       0.00000000
Si       2.94006807       2.16730305      -0.31311799       0.00000000
Si      -2.54780487       1.72797804       2.05379460       0.00000000
Si      -2.07591615      -2.96917830      -0.85543038       0.00000000
Si      -0.18904545      -0.66117852       3.66896326       0.00000000
