10
Lattice="16.28999089631971 0.0 0.0 0.0 16.28999089631971 0.0 0.0 0.0 34.31052061344573" Properties=species:S:1:pos:R:3:initial_magmoms:R:1 pbc="T T T"
Si      -1.35754344      -1.35785295       1.35989824       0.00000000
Si      -1.36089918       1.35927018      -1.35591822       0.00000000
Si       1.35806472       1.35811359       1.36020704       0.00000000
Si       1.36228383      -1.36306575      -1.35770237       0.00000000
Si       2.68154577       0.01863576      -2.72446615       0.00000000
Si      -2.70505224      -0.00754227      -2.71180556       0.00000000
Si       2.71549413      -2.71422351       0.00483779       0.00000000
Si      -2.71529865       2.71446786       0.00329381       0.00000000
Si       2.71611315       2.71443528       0.00538675       0.00000000
Si       0.00057015       2.71440270       2.71694871       0.00000000
