10
Lattice="16.28999089631971 0.0 0.0 0.0 16.28999089631971 0.0 0.0 0.0 34.31052061344573" Properties=species:S:1:pos:R:3:initial_magmoms:R:1 pbc="T T T"
Si       1.35749457      -1.35628911      -1.35674167       0.00000000
Si      -1.35723393      -1.35736425       1.35801116       0.00000000
Si       1.35783666       1.35630540       1.35866307       0.00000000
Si      -1.35801585       1.35788553      -1.35718771       0.00000000
Si       2.71554300       0.00003258      -2.71156196       0.00000000
Si      -2.71480995      -2.71441899       0.00027448       0.00000000
Si       2.71523349      -2.71427238       0.00017155       0.00000000
Si      -2.71586880       0.00006516      -2.71365490       0.00000000
Si      -0.00019548       2.71487511      -2.71478715       0.00000000
Si       2.71494027       2.71539639       0.00041173       0.00000000
