10
Lattice="16.28999089631971 0.0 0.0 0.0 16.28999089631971 0.0 0.0 0.0 34.31052061344573" Properties=species:S:1:pos:R:3:initial_magmoms:R:1 pbc="T T T"
Si       1.69439132       1.61544672       0.08574204       0.00000000
Si      -1.82687856       0.02014096      -1.47730891       0.00000000
Si       0.80560892      -2.25074762      -0.37360747       0.00000000
Si      -1.23225542      -1.37691714       2.22781766       0.00000000
Si      -1.00954994      -2.15199764      -1.87647773       0.00000000
Si       0.89316767       1.69681527       2.35267371       0.00000000
Si      -0.32342492      -3.35740877       1.35718771       0.00000000
Si       0.00489026      -0.18144291       3.80250473       0.00000000
Si      -1.26211271       1.22464962      -3.43136277       0.00000000
Si       2.26040366       2.59270011      -2.28346935       0.00000000
