10
Lattice="16.28999089631971 0.0 0.0 0.0 16.28999089631971 0.0 0.0 0.0 34.31052061344573" Properties=species:S:1:pos:R:3:initial_magmoms:R:1 pbc="T T T"
Si      -0.87731424      -0.99904941       1.88450640       0.00000000
Si      -0.97023240      -1.17136503      -1.78833395       0.00000000
Si      -1.40328576       1.88230950      -0.14204563       0.00000000
Si       2.36569896      -0.16413804       0.22586628       0.00000000
Si       3.07369494       1.38292326      -1.35996687       0.00000000
Si       0.17360253      -3.06326934       1.98325213       0.00000000
Si      -0.43289046       0.46261971       3.67970246       0.00000000
Si      -3.39586227       1.33180524       1.05240719       0.00000000
Si      -0.19554516      -3.39923430      -1.90094115       0.00000000
Si      -3.33019728      -1.15399989      -1.80027402       0.00000000
