10
Lattice="16.28999089631971 0.0 0.0 0.0 16.28999089631971 0.0 0.0 0.0 34.31052061344573" Properties=species:S:1:pos:R:3:initial_magmoms:R:1 pbc="T T T"
Si      -1.34148150      -1.35167904      -1.38919945       0.00000000
Si       1.37844351       1.35972678      -1.38765547       0.00000000
Si       1.28519955      -1.41724629       1.45936450       0.00000000
Si      -1.49022549       1.30147326       1.51793259       0.00000000
Si      -2.69399133       2.70073443      -0.02213030       0.00000000
Si      -2.71912680      -2.69724933      -0.00905798       0.00000000
Si       2.71764441      -2.71008585      -0.01554267       0.00000000
Si      -2.69804754       0.00232947      -2.75101908       0.00000000
Si       2.73891915       2.71365403      -0.02151271       0.00000000
Si       0.01914075      -2.71435383      -2.74902907       0.00000000
