10
Lattice="16.28999089631971 0.0 0.0 0.0 16.28999089631971 0.0 0.0 0.0 34.31052061344573" Properties=species:S:1:pos:R:3:initial_magmoms:R:1 pbc="T T T"
Si       0.31778532      -0.87459381      -2.15854468       0.00000000
Si       1.66239450       1.44783469       0.83309422       0.00000000
Si      -2.21061816       0.79409174       0.37587196       0.00000000
Si       0.05607018      -2.56108122       0.13298765       0.00000000
Si       0.80788626       2.32625177      -1.14405064       0.00000000
Si       3.35082042      -0.06761979       0.46133952       0.00000000
Si      -3.31936443      -1.40046759       0.45420293       0.00000000
Si      -2.05556994       1.37748470       2.78340823       0.00000000
Si       1.56970440       0.71503719      -3.34239554       0.00000000
Si      -2.09300436      -3.03489216      -1.05655876       0.00000000
