10
Lattice="16.28999089631971 0.0 0.0 0.0 16.28999089631971 0.0 0.0 0.0 34.31052061344573" Properties=species:S:1:pos:R:3:initial_magmoms:R:1 pbc="T T T"
Si      -0.58194396       0.77507820       2.10515748       0.00000000
Si      -1.25024121      -1.90314441      -0.51002617       0.00000000
Si       2.31785523      -0.28002510       0.05242650       0.00000000
Si      -0.36983187       1.43638704      -1.87973723       0.00000000
Si       0.85652820      -0.19803753      -3.39049892       0.00000000
Si      -0.85485033       3.02612814       1.55721816       0.00000000
Si      -2.60998380      -0.36171945       2.45478188       0.00000000
Si       0.03547962      -2.42562987      -2.68541733       0.00000000
Si       2.95412634       1.24082559       1.74688682       0.00000000
Si       1.39520592       0.54491679       3.36445722       0.00000000
