10
Lattice="16.28999089631971 0.0 0.0 0.0 16.28999089631971 0.0 0.0 0.0 34.31052061344573" Properties=species:S:1:pos:R:3:initial_magmoms:R:1 pbc="T T T"
Si       1.31623200      -1.37476197      -1.34401590       0.00000000
Si       1.36120869       1.35268902       1.35590450       0.00000000
Si      -1.35554954      -1.35922131       1.35545846       0.00000000
Si      -1.21888785       1.22820084      -1.60489952       0.00000000
Si      -0.44740485      -2.14778763      -2.82622233       0.00000000
Si       0.61309044       2.00541303      -2.93097241       0.00000000
Si      -2.27142710      -0.51844554      -2.78233915       0.00000000
Si       2.49109938       0.22400379      -2.66395265       0.00000000
Si      -2.69364014       2.68250688      -0.01695284       0.00000000
Si       0.00296478       2.70892926       2.71394997       0.00000000
