10
Lattice="16.28999089631971 0.0 0.0 0.0 16.28999089631971 0.0 0.0 0.0 34.31052061344573" Properties=species:S:1:pos:R:3:initial_magmoms:R:1 pbc="T T T"
Si       0.92473738       1.67866006      -1.31419661       0.00000000
Si      -1.75107726      -1.06557288      -1.24533535       0.00000000
Si       1.83725692      -1.02997483       1.33605242       0.00000000
Si      -2.51289540       0.54564170       0.95300955       0.00000000
Si       0.03003876      -1.84822986       2.55839971       0.00000000
Si      -1.65838716      -0.33277538       2.93015441       0.00000000
Si       2.19559456       0.22328214      -2.61350244       0.00000000
Si       2.16867860       2.91710731       0.20613772       0.00000000
Si      -0.52820325      -2.49903165      -2.62283490       0.00000000
Si       0.37041831       3.25211117       1.72835913       0.00000000
