10
Lattice="16.28999089631971 0.0 0.0 0.0 16.28999089631971 0.0 0.0 0.0 34.31052061344573" Properties=species:S:1:pos:R:3:initial_magmoms:R:1 pbc="T T T"
Si      -2.11893804       0.52029445      -0.86613527       0.00000000
Si       1.22687713       2.01950062      -0.25753491       0.00000000
Si       0.67687298      -1.80899865      -1.40508523       0.00000000
Si      -0.73278936      -0.19939286       2.28830714       0.00000000
Si       3.11421536      -0.94658062       0.96796895       0.00000000
Si       3.36522797       1.12065100      -0.13127213       0.00000000
Si      -2.50318656       2.61297790       0.43447437       0.00000000
Si      -0.08151516      -3.69212265      -0.26992102       0.00000000
Si      -2.05348482      -0.18852254      -3.11062785       0.00000000
Si      -2.57513949       1.29102811       2.46267330       0.00000000
