10
Lattice="16.28999089631971 0.0 0.0 0.0 16.28999089631971 0.0 0.0 0.0 34.31052061344573" Properties=species:S:1:pos:R:3:initial_magmoms:R:1 pbc="T T T"
Si       0.86754254       0.40739824      -2.14938377       0.00000000
Si       1.56209764      -1.49170366       0.97833073       0.00000000
Si      -2.31554205       0.48587531       0.28367954       0.00000000
Si       0.54622783       1.71986073       1.56469786       0.00000000
Si      -0.01853802       0.51535207       3.51875172       0.00000000
Si       0.90615636       2.72237991      -2.18386586       0.00000000
Si       2.81276891       2.00003244       1.05885757       0.00000000
Si       0.79879059      -1.65678652       3.11958290       0.00000000
Si       3.52612430      -0.25305701       0.86960063       0.00000000
Si      -2.78166411       2.15149686      -1.35495753       0.00000000
