10
Lattice="16.28999089631971 0.0 0.0 0.0 16.28999089631971 0.0 0.0 0.0 34.31052061344573" Properties=species:S:1:pos:R:3:initial_magmoms:R:1 pbc="T T T"
Si       1.35860229      -1.35661491       1.35310476       0.00000000
Si      -1.35722802      -1.35384561      -1.35955514       0.00000000
Si       1.35736425       1.36055709      -1.35958945       0.00000000
Si      -1.35935882       1.36293543       1.35917772       0.00000000
Si      -2.71419812      -2.71250492       0.00013724       0.00000000
Si       2.71604799      -2.71136299      -0.00164691       0.00000000
Si      -0.00015313      -2.71164480      -2.71605664       0.00000000
Si      -2.71351394       0.00317655      -2.71564491       0.00000000
Si       2.71466334       2.71554300      -0.00010293       0.00000000
Si       0.01249932      -2.71249351       2.71856131       0.00000000
