10
Lattice="16.28999089631971 0.0 0.0 0.0 16.28999089631971 0.0 0.0 0.0 34.31052061344573" Properties=species:S:1:pos:R:3:initial_magmoms:R:1 pbc="T T T"
Si      -1.49224545       1.89653067       0.25190798       0.00000000
Si      -0.80663193      -0.37996425      -2.44562097       0.00000000
Si       0.49414086      -1.24867737       2.24106153       0.00000000
Si       2.11696110       1.54782693      -0.34488955       0.00000000
Si       0.55941489      -3.19534866      -0.89409836       0.00000000
Si      -1.19130399       2.46563811       2.50604183       0.00000000
Si       1.42162897      -3.18788784       1.26400029       0.00000000
Si       2.51567026      -0.16788474       2.98268384       0.00000000
Si       1.80446841       2.37197061      -2.53345595       0.00000000
Si       0.93410118       0.53431200      -3.81759652       0.00000000
