10
Lattice="16.28999089631971 0.0 0.0 0.0 16.28999089631971 0.0 0.0 0.0 34.31052061344573" Properties=species:S:1:pos:R:3:initial_magmoms:R:1 pbc="T T T"
Si       1.30822872      -1.34429967       1.40961422       0.00000000
Si      -1.35449299      -1.35635427      -1.36425568       0.00000000
Si       1.36048704       1.36068741      -1.36305481       0.00000000
Si      -1.43312482       1.32670647       1.41349131       0.00000000
Si      -2.70335386       2.70352098      -0.02116960       0.00000000
Si      -2.71177579      -2.71178001      -0.00336243       0.00000000
Si       2.71084659      -2.72057661       0.01701803       0.00000000
Si      -2.71146628      -0.00114030      -2.72439410       0.00000000
Si       0.00333619       2.71464705      -2.72641842       0.00000000
Si       2.72689224       2.71551042       0.03379588       0.00000000
