10
Lattice="16.28999089631971 0.0 0.0 0.0 16.28999089631971 0.0 0.0 0.0 34.31052061344573" Properties=species:S:1:pos:R:3:initial_magmoms:R:1 pbc="T T T"
Si       1.08879102      -0.35686503       2.07366040       0.00000000
Si      -2.38495374      -0.05462037       0.58571522       0.00000000
Si       0.85774995       2.08047735      -1.05316202       0.00000000
Si       0.70363026      -1.94285943      -1.39376275       0.00000000
Si       3.34170521      -0.17285319       1.42392171       0.00000000
Si      -3.46270014      -0.81406017      -1.46022226       0.00000000
Si       0.79871499      -2.65287537       2.67330571       0.00000000
Si      -0.21792762       3.92937606       0.01125386       0.00000000
Si       1.65279969      -1.13078664      -3.45314997       0.00000000
Si      -3.21673743       2.17228779       1.12161155       0.00000000
