10
Lattice="16.28999089631971 0.0 0.0 0.0 16.28999089631971 0.0 0.0 0.0 34.31052061344573" Properties=species:S:1:pos:R:3:initial_magmoms:R:1 pbc="T T T"
Si      -1.36467846      -1.34045523       1.37409251       0.00000000
Si      -1.79486478       1.00260063      -1.16607457       0.00000000
Si       1.34459845       1.38626271       1.36839697       0.00000000
Si       1.47475229      -1.45430604      -1.58794668       0.00000000
Si      -0.00198544       1.93756518      -2.46636855       0.00000000
Si       2.69364014      -2.68250688       0.01695284       0.00000000
Si      -2.73018771      -2.67084324      -0.02406884       0.00000000
Si      -0.01891975      -2.68596036       2.73285851       0.00000000
Si       2.69300483       2.72833065      -0.01230033       0.00000000
Si       2.69660492       0.02642238       2.73090281       0.00000000
