10
Lattice="16.28999089631971 0.0 0.0 0.0 16.28999089631971 0.0 0.0 0.0 34.31052061344573" Properties=species:S:1:pos:R:3:initial_magmoms:R:1 pbc="T T T"
Si      -1.35690813       1.35625653       1.35763375       0.00000000
Si       1.35797357      -1.35783666       1.35735926       0.00000000
Si       1.35796058       1.35731538      -1.35869738       0.00000000
Si      -1.35645201      -1.35803214      -1.35972669       0.00000000
Si       2.71366218       0.00032580       2.71372352       0.00000000
Si       0.00115659       2.71252935       2.71495870       0.00000000
Si      -2.71438641      -0.00081450       2.71379214       0.00000000
Si       0.00374670       2.71202436      -2.71691440       0.00000000
Si      -2.71533123       2.71451673       0.00075483       0.00000000
Si      -2.71469592      -2.71542897       0.00082345       0.00000000
