10
Lattice="16.28999089631971 0.0 0.0 0.0 16.28999089631971 0.0 0.0 0.0 34.31052061344573" Properties=species:S:1:pos:R:3:initial_magmoms:R:1 pbc="T T T"
Si       1.35567009      -1.32724404      -1.35039422       0.00000000
Si       1.75492170       0.87509880       1.30081549       0.00000000
Si      -1.38171780       1.40066307      -1.31992647       0.00000000
Si      -0.95351886      -1.93088628       1.14995205       0.00000000
Si       0.72042525       1.00582605       3.44611631       0.00000000
Si       2.62589913      -2.70405855       0.08426669       0.00000000
Si      -0.01045818      -2.67071292      -2.69615653       0.00000000
Si       2.68923465       2.70589932       0.04100110       0.00000000
Si       2.71006956       0.03808602      -2.69900430       0.00000000
Si      -2.71992501       0.03640815      -2.69780343       0.00000000
