10
Lattice="16.28999089631971 0.0 0.0 0.0 16.28999089631971 0.0 0.0 0.0 34.31052061344573" Properties=species:S:1:pos:R:3:initial_magmoms:R:1 pbc="T T T"
Si       0.30094146       0.56910744       2.25413384       0.00000000
Si      -2.18491254      -0.24736365      -0.86843407       0.00000000
Si       1.49224545      -1.89653067      -0.25190798       0.00000000
Si       0.52087275       2.34766593      -0.70765488       0.00000000
Si       1.62212562       2.35341630       1.42656362       0.00000000
Si      -1.15307136      -0.58904640      -3.00381914       0.00000000
Si      -1.96063182       0.97678098       2.72909465       0.00000000
Si       0.68561352      -2.27649492      -2.69752895       0.00000000
Si      -2.94006807      -2.16730305       0.31311799       0.00000000
Si       3.60920655      -0.34870374      -0.59679753       0.00000000
