10
Lattice="16.28999089631971 0.0 0.0 0.0 16.28999089631971 0.0 0.0 0.0 34.31052061344573" Properties=species:S:1:pos:R:3:initial_magmoms:R:1 pbc="T T T"
Si       0.37269891       1.75620861       1.46993215       0.00000000
Si      -1.32118416      -1.78430886       0.82757022       0.00000000
Si       2.19557013      -0.77111973      -0.45550673       0.00000000
Si      -1.10125287      -0.00575037      -2.13421851       0.00000000
Si      -1.62212562      -2.35341630      -1.42656362       0.00000000
Si      -1.30681638       1.69758090       3.04379092       0.00000000
Si       2.01649742       1.06129350       2.96703824       0.00000000
Si      -0.43078905      -2.28736035       2.96257787       0.00000000
Si       1.13108705       3.63933261       0.33476794       0.00000000
Si       2.97791693      -2.10561282       1.29958032       0.00000000
