10
Lattice="16.28999089631971 0.0 0.0 0.0 16.28999089631971 0.0 0.0 0.0 34.31052061344573" Properties=species:S:1:pos:R:3:initial_magmoms:R:1 pbc="T T T"
Si       1.64558322      -0.88402572       1.40021313       0.00000000
Si      -0.03230307      -0.30388995      -2.35181595       0.00000000
Si       0.24443145       2.30097879       0.58948938       0.00000000
Si      -2.01448656      -1.10661228       0.74316629       0.00000000
Si      -2.06122257       2.70464499       0.58801403       0.00000000
Si       0.86320710       3.17011545      -1.53306354       0.00000000
Si      -3.18003606       0.87053760       1.55512522       0.00000000
Si      -1.01385702      -2.77804773       2.19597748       0.00000000
Si      -2.32311690      -0.51391692      -2.82729141       0.00000000
Si       0.16734717       1.83215259      -3.33501878       0.00000000
