10
Lattice="16.28999089631971 0.0 0.0 0.0 16.28999089631971 0.0 0.0 0.0 34.31052061344573" Properties=species:S:1:pos:R:3:initial_magmoms:R:1 pbc="T T T"
Si      -1.30822872       1.34429967      -1.40961422       0.00000000
Si       1.32809112       1.26465786       1.46636385       0.00000000
Si      -1.31777955      -1.39365837       1.40515385       0.00000000
Si       1.40261787      -1.37627694      -1.39259619       0.00000000
Si       1.12993956      -1.00251918       2.42476016       0.00000000
Si      -2.56172077      -2.63210562      -0.11518048       0.00000000
Si       2.77379604       2.62980873       0.10087299       0.00000000
Si      -2.74135355       2.67100614       0.00387709       0.00000000
Si      -2.66272172      -0.01205460      -2.77386990       0.00000000
Si       0.05225832       2.70498708      -2.77266903       0.00000000
