10
Lattice="16.28999089631971 0.0 0.0 0.0 16.28999089631971 0.0 0.0 0.0 34.31052061344573" Properties=species:S:1:pos:R:3:initial_magmoms:R:1 pbc="T T T"
Si       1.02881124       0.04476492      -2.07112142       0.00000000
Si       0.57361977       1.90462680       1.25319247       0.00000000
Si      -2.35495408      -0.00390960       0.58959232       0.00000000
Si       1.29658626      -2.05498350       0.54653259       0.00000000
Si      -1.41890787      -0.34637427      -3.09072773       0.00000000
Si       2.04481854       0.68018895       2.65385163       0.00000000
Si      -1.96561167      -1.38823380       2.48638189       0.00000000
Si       0.17273916      -2.28708342       2.61264467       0.00000000
Si      -3.21716816      -0.01137042      -1.56850633       0.00000000
Si       2.74141152      -1.60467903      -2.30511931       0.00000000
