10
Lattice="16.28999089631971 0.0 0.0 0.0 16.28999089631971 0.0 0.0 0.0 34.31052061344573" Properties=species:S:1:pos:R:3:initial_magmoms:R:1 pbc="T T T"
Si       0.89117703      -2.16665145       0.10601957       0.00000000
Si      -0.22327074       0.76305618      -2.26658857       0.00000000
Si      -1.52645445       0.51240195       1.84487772       0.00000000
Si       1.99042690       1.33012737       0.85721453       0.00000000
Si       3.28190462      -1.57850100      -0.41004526       0.00000000
Si      -3.42673182       1.25923329       0.66408050       0.00000000
Si       1.30430187       2.53553850      -2.37645092       0.00000000
Si      -0.24273729       1.92552687       3.31182970       0.00000000
Si       1.08159640       3.31061900       1.72784447       0.00000000
Si       0.93849948      -0.79324155      -3.69888205       0.00000000
