10
Lattice="16.28999089631971 0.0 0.0 0.0 16.28999089631971 0.0 0.0 0.0 34.31052061344573" Properties=species:S:1:pos:R:3:initial_magmoms:R:1 pbc="T T T"
Si       1.85341104      -1.42012962      -0.12780676       0.00000000
Si      -1.25597529      -1.08787878      -1.65373371       0.00000000
Si       0.49023126       2.36100744       0.03345278       0.00000000
Si      -0.56601234      -0.97725339       2.36921139       0.00000000
Si       1.74623913      -1.58807952       2.22744024       0.00000000
Si      -1.26527688       3.32905698      -1.25113383       0.00000000
Si      -0.54261990      -3.34096823      -1.84299064       0.00000000
Si      -1.23618294       0.12375513      -3.66477738       0.00000000
Si       3.58785621      -0.49028013      -1.40844766       0.00000000
Si       1.29821526      -3.69989883      -0.43032279       0.00000000
