10
Lattice="16.28999089631971 0.0 0.0 0.0 16.28999089631971 0.0 0.0 0.0 34.31052061344573" Properties=species:S:1:pos:R:3:initial_magmoms:R:1 pbc="T T T"
Si       0.32632128      -0.90916119      -2.10646128       0.00000000
Si      -2.22956962      -0.49782240       0.49980163       0.00000000
Si       1.75550814      -0.96804954       1.28458661       0.00000000
Si       0.07024248       2.36030697      -0.36050084       0.00000000
Si       3.30040287      -0.03214017      -0.28590973       0.00000000
Si      -1.79390041      -0.00322542       2.88109034       0.00000000
Si       0.64298259       0.30297771       3.39917949       0.00000000
Si       2.51222751      -0.02388114      -2.54580774       0.00000000
Si      -1.26939825       3.17158155       1.47336320       0.00000000
Si      -3.49093790       0.95177583      -1.07096919       0.00000000
