10
Lattice="16.28999089631971 0.0 0.0 0.0 16.28999089631971 0.0 0.0 0.0 34.31052061344573" Properties=species:S:1:pos:R:3:initial_magmoms:R:1 pbc="T T T"
Si      -0.06762173       0.97112835      -2.08958191       0.00000000
Si      -1.79287934      -0.93496455       1.30029397       0.00000000
Si       1.18384679       1.93948740       1.03496371       0.00000000
Si       0.00198544      -1.93756518       2.46636855       0.00000000
Si       2.69499027       0.79076547       2.45406822       0.00000000
Si      -2.73743870       0.81956619       2.49897385       0.00000000
Si       1.47673773      -3.39187122       0.87842187       0.00000000
Si       2.32310586       1.55927880      -2.60564673       0.00000000
Si      -0.78697184      -0.55328985      -3.78932605       0.00000000
Si      -0.95879876       3.13777980      -2.19560147       0.00000000
