10
Lattice="16.28999089631971 0.0 0.0 0.0 16.28999089631971 0.0 0.0 0.0 34.31052061344573" Properties=species:S:1:pos:R:3:initial_magmoms:R:1 pbc="T T T"
Si      -1.15499521       0.75745242       1.87198305       0.00000000
Si      -0.78234680       1.33449309      -1.75508704       0.00000000
Si       2.33515521      -0.10016721      -0.17028321       0.00000000
Si      -0.59212684      -2.31221889       0.00463192       0.00000000
Si      -0.99083599      -0.59650722      -3.32294147       0.00000000
Si       2.69237862      -1.74128697      -1.81732636       0.00000000
Si      -0.96141951       3.16690632       1.66745792       0.00000000
Si       3.11090130      -1.07979894       1.81163081       0.00000000
Si      -0.22183722      -0.28020429       3.74331420       0.00000000
Si       1.24240572      -3.42368559      -1.05045149       0.00000000
