10
Lattice="16.28999089631971 0.0 0.0 0.0 16.28999089631971 0.0 0.0 0.0 34.31052061344573" Properties=species:S:1:pos:R:3:initial_magmoms:R:1 pbc="T T T"
Si       2.37682503      -0.13864419       0.09486864       0.00000000
Si      -1.30786220      -1.82446371       1.01308731       0.00000000
Si      -0.09259236       2.04690366       1.39637035       0.00000000
Si       0.77862942      -0.09715356      -2.55826247       0.00000000
Si      -0.86472207       1.67801661      -2.85456829       0.00000000
Si       0.33930441       1.14383493       3.54081340       0.00000000
Si      -3.50343233      -1.05334398       1.46859403       0.00000000
Si      -2.37234528       2.58598863       1.80336197       0.00000000
Si       0.53467038       3.90311562      -0.23602220       0.00000000
Si       3.17278701      -1.43835813       1.97144931       0.00000000
