10
Lattice="16.28999089631971 0.0 0.0 0.0 16.28999089631971 0.0 0.0 0.0 34.56954931742767" Properties=species:S:1:pos:R:3:initial_magmoms:R:1 pbc="T T T"
Si      -1.42482114      -1.22628823      -1.40254413       0.00000000
Si       1.33115364      -1.34576479       1.39057818       0.00000000
Si      -1.35894438       1.37361027       1.36261832       0.00000000
Si       1.70328240       0.97861035      -1.32056713       0.00000000
Si       0.36854496      -2.17663952      -2.54126572       0.00000000
Si       2.70021411      -2.59539026      -0.00845917       0.00000000
Si       0.79216641       1.02454815      -3.52079445       0.00000000
Si       3.51228690      -0.67807777      -1.22073063       0.00000000
Si      -2.70542691      -2.69427056      -0.06782204       0.00000000
Si       2.70731655       0.01188518       2.72991735       0.00000000
