10
Lattice="16.28999089631971 0.0 0.0 0.0 16.28999089631971 0.0 0.0 0.0 34.56954931742767" Properties=species:S:1:pos:R:3:initial_magmoms:R:1 pbc="T T T"
Si      -0.09573633      -2.30118241       0.46637805       0.00000000
Si      -2.34597177       0.30084372       0.21360536       0.00000000
Si       0.24747768       0.91017117      -2.21044736       0.00000000
Si       1.46189718       0.58331232       1.95684500       0.00000000
Si      -2.41220691       2.61744462       0.53814447       0.00000000
Si       2.44833813       1.64849913      -2.36144723       0.00000000
Si      -1.05513588      -3.40719962      -1.34772920       0.00000000
Si      -0.83665440      -2.73393767       2.65145134       0.00000000
Si       3.24169371      -1.10486925       1.96728501       0.00000000
Si      -0.80576856       3.00081348      -2.71146412       0.00000000
