10
Lattice="16.28999089631971 0.0 0.0 0.0 16.28999089631971 0.0 0.0 0.0 34.56954931742767" Properties=species:S:1:pos:R:3:initial_magmoms:R:1 pbc="T T T"
Si       1.17343386       1.61199324       1.27392317       0.00000000
Si      -1.12106151       1.50105834      -1.47349329       0.00000000
Si      -1.94642694      -0.60514092       1.36069279       0.00000000
Si       1.57957614      -1.21943682      -1.48044178       0.00000000
Si       2.12641515      -0.11455128       2.49951809       0.00000000
Si      -2.54246175      -2.51789643      -0.04639236       0.00000000
Si       0.64066941      -2.11398588       2.94207771       0.00000000
Si      -2.47826286       0.14621904      -2.85323392       0.00000000
Si      -2.47759497       2.85910677       0.03768083       0.00000000
Si       0.23861592      -2.57230503      -2.85413273       0.00000000
