10
Lattice="16.28999089631971 0.0 0.0 0.0 16.28999089631971 0.0 0.0 0.0 34.56954931742767" Properties=species:S:1:pos:R:3:initial_magmoms:R:1 pbc="T T T"
Si       2.23909308       0.06739173      -0.58591962       0.00000000
Si      -0.46786509      -2.30475807      -0.19856760       0.00000000
Si      -0.24620706      -0.00811242       2.35684948       0.00000000
Si      -1.22776101       1.71072693      -1.09886288       0.00000000
Si       1.29585321      -3.01739670       1.28432861       0.00000000
Si      -2.70914103      -2.20449312       0.60130308       0.00000000
Si      -2.44706751      -0.74644038       2.50784936       0.00000000
Si       3.04530147       2.03124897       0.40149097       0.00000000
Si       2.24995851      -0.15092685      -2.94671003       0.00000000
Si      -3.45932811       1.36572102      -0.39454249       0.00000000
