10
Lattice="16.28999089631971 0.0 0.0 0.0 16.28999089631971 0.0 0.0 0.0 34.56954931742767" Properties=species:S:1:pos:R:3:initial_magmoms:R:1 pbc="T T T"
Si       1.79023842       1.40970402       0.36149398       0.00000000
Si       0.28057896      -0.34854084      -2.26378820       0.00000000
Si       0.45875898      -1.99174572       1.15600638       0.00000000
Si      -2.24663535       0.92203029      -0.04186375       0.00000000
Si       1.54683324      -0.09255978       2.99286040       0.00000000
Si       0.57484152       3.34546101       0.85666848       0.00000000
Si      -0.67662144       1.51586595      -3.30709778       0.00000000
Si       2.53522899      -0.43984629      -2.76414814       0.00000000
Si      -2.80362303       0.95426820      -2.40424436       0.00000000
Si       3.02386383       1.62841356      -1.72000889       0.00000000
