10
Lattice="16.28999089631971 0.0 0.0 0.0 16.28999089631971 0.0 0.0 0.0 34.56954931742767" Properties=species:S:1:pos:R:3:initial_magmoms:R:1 pbc="T T T"
Si       1.35741312       1.35703845      -1.35699385       0.00000000
Si      -1.35721764       1.35702216       1.35740868       0.00000000
Si       1.35720135      -1.35816246       1.35758153       0.00000000
Si      -1.35777150      -1.35786924      -1.35733954       0.00000000
Si      -0.00201996      -2.71595025       2.71319259       0.00000000
Si       2.71459818       2.71463076      -0.00003457       0.00000000
Si      -2.71527584      -0.00263898       2.71395312       0.00000000
Si      -2.71470407       2.71469592      -0.00020742       0.00000000
Si      -0.00027693       2.71417464       2.71523220       0.00000000
Si       2.71518462      -0.00177561       2.71429882       0.00000000
