10
Lattice="16.28999089631971 0.0 0.0 0.0 16.28999089631971 0.0 0.0 0.0 34.56954931742767" Properties=species:S:1:pos:R:3:initial_magmoms:R:1 pbc="T T T"
Si      -0.40306347      -2.31718734      -0.45783937       0.00000000
Si      -0.44142642       0.31195350       2.34046351       0.00000000
Si      -1.33986879       1.60663383      -1.22621717       0.00000000
Si       2.20196817       0.49847400      -0.94869267       0.00000000
Si      -0.54491679       1.14233625      -3.44962812       0.00000000
Si       2.61879669       2.69762400      -0.13063840       0.00000000
Si       1.53994257      -3.42381428       0.48100098       0.00000000
Si       1.80691938       0.86454288      -3.28092862       0.00000000
Si      -2.77928251      -0.22488345       2.75602429       0.00000000
Si       0.08454510       2.58271434       2.96105640       0.00000000
