10
Lattice="16.28999089631971 0.0 0.0 0.0 16.28999089631971 0.0 0.0 0.0 34.56954931742767" Properties=species:S:1:pos:R:3:initial_magmoms:R:1 pbc="T T T"
Si       1.34135118       1.34739477      -1.37707877       0.00000000
Si      -1.27778760       1.39965309       1.40245283       0.00000000
Si      -1.37197638      -1.36774098      -1.37538486       0.00000000
Si       1.39004199      -1.28298411       1.49333623       0.00000000
Si      -0.46411839      -2.06946531       2.87933394       0.00000000
Si       2.70581787       2.70154989       0.00086424       0.00000000
Si       2.68902288      -2.72886822       0.00432120       0.00000000
Si       2.69936703      -0.00576666      -2.73452202       0.00000000
Si      -0.01545921       2.70744687      -2.73389977       0.00000000
Si      -2.73349458       2.70915732       0.00345696       0.00000000
