10
Lattice="16.28999089631971 0.0 0.0 0.0 16.28999089631971 0.0 0.0 0.0 34.56954931742767" Properties=species:S:1:pos:R:3:initial_magmoms:R:1 pbc="T T T"
Si       0.30954258      -0.67030092      -2.21483769       0.00000000
Si       0.90269406      -1.90254168       1.14933445       0.00000000
Si       1.76660163       1.69954240       0.05057528       0.00000000
Si      -2.47606371       0.28590579      -0.00407921       0.00000000
Si       1.20466179       2.15791416       2.24999494       0.00000000
Si      -1.62847872      -1.81522728      -2.78765545       0.00000000
Si       3.26503728      -1.58315994       0.86136994       0.00000000
Si      -2.76019389       2.14404975       1.46875726       0.00000000
Si       3.90712392       0.58556034       0.06464509       0.00000000
Si       0.25576929       1.05637392      -3.80126977       0.00000000
