10
Lattice="16.28999089631971 0.0 0.0 0.0 16.28999089631971 0.0 0.0 0.0 34.56954931742767" Properties=species:S:1:pos:R:3:initial_magmoms:R:1 pbc="T T T"
Si       2.16565776       0.70978366      -0.26314356       0.00000000
Si      -0.42007023      -2.06404074      -0.92836577       0.00000000
Si       1.13107986      -0.45440955       2.03020163       0.00000000
Si      -1.78272873       1.55046495      -0.45023406       0.00000000
Si      -2.52364680       1.11770970       1.73483923       0.00000000
Si      -0.66228624       0.49594174       3.16892322       0.00000000
Si       1.55470131       2.74677812       1.05067290       0.00000000
Si      -1.33128396      -1.33004592      -2.95023613       0.00000000
Si      -2.74212828       0.44444775      -2.26434132       0.00000000
Si       3.23214777      -0.24760800      -2.12174184       0.00000000
