10
Lattice="16.28999089631971 0.0 0.0 0.0 16.28999089631971 0.0 0.0 0.0 34.56954931742767" Properties=species:S:1:pos:R:3:initial_magmoms:R:1 pbc="T T T"
Si      -1.35702216       1.35795674      -1.36086564       0.00000000
Si       1.35834165      -1.35817825      -1.35962113       0.00000000
Si      -1.35021294      -1.36409152       1.37497002       0.00000000
Si       1.36164852       1.35743383       1.37714791       0.00000000
Si      -2.71340901       2.71546923      -0.00062225       0.00000000
Si       2.71375110       2.71589277      -0.00086424       0.00000000
Si       2.71437012      -2.71603120      -0.00110623       0.00000000
Si       0.00061902       2.71429635      -2.71758293       0.00000000
Si      -2.71409319      -0.00042189      -2.71792863       0.00000000
Si       2.71547784      -0.00043122      -2.71741008       0.00000000
