10
Lattice="16.28999089631971 0.0 0.0 0.0 16.28999089631971 0.0 0.0 0.0 34.56954931742767" Properties=species:S:1:pos:R:3:initial_magmoms:R:1 pbc="T T T"
Si      -1.52894682      -1.07201232       1.33403965       0.00000000
Si       1.00735731       1.67560569       1.26268806       0.00000000
Si      -1.38219021       1.29660255      -1.37808128       0.00000000
Si       1.35190710      -1.41430106      -1.37400208       0.00000000
Si       2.11351347       0.19805382       2.63337146       0.00000000
Si       0.56176065      -1.73221507       3.03513899       0.00000000
Si      -0.83535120       2.40148809       2.60187858       0.00000000
Si      -0.01115865       2.65994523      -2.74987091       0.00000000
Si      -2.68268607      -2.74177576       0.04106865       0.00000000
Si      -2.32109694       0.40205349       3.04443820       0.00000000
