10
Lattice="16.28999089631971 0.0 0.0 0.0 16.28999089631971 0.0 0.0 0.0 34.56954931742767" Properties=species:S:1:pos:R:3:initial_magmoms:R:1 pbc="T T T"
Si      -0.05843223      -0.29631510      -2.28124583       0.00000000
Si      -2.09653929       1.07932653       0.20976814       0.00000000
Si       2.13638463       0.84479940       0.66442711       0.00000000
Si      -0.65801826      -1.84168224       1.38202221       0.00000000
Si      -2.05415271      -1.69714107      -2.25597548       0.00000000
Si      -2.10740472       1.29764511       2.57055855       0.00000000
Si      -1.15585695      -0.72498645       3.36375731       0.00000000
Si      -3.59995968      -0.58725450      -0.68368236       0.00000000
Si       2.06268867      -1.00735731      -3.05591530       0.00000000
Si       2.04028992       1.49304366       2.88994680       0.00000000
