10
Lattice="16.28999089631971 0.0 0.0 0.0 16.28999089631971 0.0 0.0 0.0 34.56954931742767" Properties=species:S:1:pos:R:3:initial_magmoms:R:1 pbc="T T T"
Si      -0.08871534      -2.39172128       0.09396009       0.00000000
Si      -0.05626566       1.40305770       1.95961057       0.00000000
Si      -1.76371830       0.71263863      -1.48289622       0.00000000
Si       1.89478764       1.06215687      -1.07704948       0.00000000
Si      -1.29585321       3.01739670      -1.28432861       0.00000000
Si      -1.54206027       3.00928428       1.07252087       0.00000000
Si       0.92874177      -2.73847022       2.22883837       0.00000000
Si       0.94323987       3.08478843      -1.87024823       0.00000000
Si       0.66507183      -1.60954648      -3.37768884       0.00000000
Si      -1.34669430      -0.38739249      -3.55596411       0.00000000
