10
Lattice="16.28999089631971 0.0 0.0 0.0 16.28999089631971 0.0 0.0 0.0 34.56954931742767" Properties=species:S:1:pos:R:3:initial_magmoms:R:1 pbc="T T T"
Si      -1.35765747      -1.35881406       1.35668272       0.00000000
Si       1.35744570       1.35897696       1.35689014       0.00000000
Si       1.35780408      -1.35767376      -1.35789266       0.00000000
Si      -1.35824391       1.35759231      -1.35765067       0.00000000
Si      -0.00057015       2.71213839       2.71433339       0.00000000
Si       2.71479366      -2.71463076      -0.00024199       0.00000000
Si      -0.00048870      -2.71357191       2.71602730       0.00000000
Si       2.71476108       2.71492398      -0.00024199       0.00000000
Si      -2.71389771      -0.00299736       2.71602730       0.00000000
Si      -2.71542897       0.00000000      -2.71460995       0.00000000
