10
Lattice="16.28999089631971 0.0 0.0 0.0 16.28999089631971 0.0 0.0 0.0 34.56954931742767" Properties=species:S:1:pos:R:3:initial_magmoms:R:1 pbc="T T T"
Si       0.32008221       0.00039096      -2.30015539       0.00000000
Si      -2.32567443       0.31221414       0.24063877       0.00000000
Si       0.38349918      -1.77650595       1.55206992       0.00000000
Si       1.54064304       1.75394430       0.60109566       0.00000000
Si      -0.24992118       2.52765414       1.94018247       0.00000000
Si      -2.36449350       1.49556861       2.25217283       0.00000000
Si       2.70433548      -1.70961921       1.68934568       0.00000000
Si      -0.82780893      -1.94644323      -2.98909232       0.00000000
Si       3.44649159       0.45954090       1.21532775       0.00000000
Si      -2.87225280       1.69733655      -1.60675898       0.00000000
