10
Lattice="16.28999089631971 0.0 0.0 0.0 16.28999089631971 0.0 0.0 0.0 34.56954931742767" Properties=species:S:1:pos:R:3:initial_magmoms:R:1 pbc="T T T"
Si       1.39435884      -0.12126276      -1.89150852       0.00000000
Si      -0.64208664      -2.16872028       0.79672485       0.00000000
Si      -2.14052229       1.11398206      -0.01406981       0.00000000
Si       1.92520107       0.71504955       1.27520225       0.00000000
Si       0.61445880      -2.09477997       2.80829348       0.00000000
Si       0.78693732       1.69193546       3.05124841       0.00000000
Si       2.66334984      -1.47808944       1.92583610       0.00000000
Si      -2.70246213       1.57235382       2.18534985       0.00000000
Si       1.56017475       1.92326649      -3.03894164       0.00000000
Si      -3.90712392      -0.58556034      -0.06464509       0.00000000
