10
Lattice="16.28999089631971 0.0 0.0 0.0 16.28999089631971 0.0 0.0 0.0 34.56954931742767" Properties=species:S:1:pos:R:3:initial_magmoms:R:1 pbc="T T T"
Si       0.30556782      -2.26289277       0.78369212       0.00000000
Si       1.98513198       1.36718712      -0.16261525       0.00000000
Si       0.10852398      -0.90657108      -2.47967516       0.00000000
Si      -1.86502581       1.26895842       1.59486705       0.00000000
Si       2.51322120      -1.83221775       1.48172085       0.00000000
Si      -1.91879910       2.99563326       0.00843497       0.00000000
Si      -3.02184387      -1.98593019      -0.03557209       0.00000000
Si       3.68680167      -0.38848392      -0.27669483       0.00000000
Si      -1.66452849      -2.88202680       1.90018548       0.00000000
Si      -3.80304711       0.12403206       1.02204930       0.00000000
