10
Lattice="16.28999089631971 0.0 0.0 0.0 16.28999089631971 0.0 0.0 0.0 34.56954931742767" Properties=species:S:1:pos:R:3:initial_magmoms:R:1 pbc="T T T"
Si      -1.43068554       1.23703002       1.48679221       0.00000000
Si      -2.00054232      -0.81848616      -1.09545052       0.00000000
Si       1.27102725      -1.48832675       1.45782982       0.00000000
Si       1.46531808       1.26390852      -1.50331443       0.00000000
Si      -2.74025493       2.59657713       0.05770352       0.00000000
Si       2.67716376       2.66435982      -0.01341645       0.00000000
Si      -0.09422136       2.58662394       2.85823959       0.00000000
Si       2.62449819      -0.12673946       2.85301959       0.00000000
Si      -2.81261511      -2.73579866       0.11682094       0.00000000
Si      -1.73726334      -1.00207609      -3.38683737       0.00000000
