10
Lattice="16.28999089631971 0.0 0.0 0.0 16.28999089631971 0.0 0.0 0.0 34.56954931742767" Properties=species:S:1:pos:R:3:initial_magmoms:R:1 pbc="T T T"
Si      -1.35052514      -1.35684297       1.39759235       0.00000000
Si       1.36129627       1.36257705       1.39555274       0.00000000
Si       1.41945971      -1.32851466      -1.49312189       0.00000000
Si      -1.49009786       1.39074246      -1.48419258       0.00000000
Si      -2.69598140      -2.70883152       0.02236651       0.00000000
Si      -2.70086840       2.70707220       0.05621012       0.00000000
Si       2.71140984      -2.70529659       0.02645609       0.00000000
Si       2.71685070       2.71533123       0.01277346       0.00000000
Si      -2.70950210       0.00148239       2.75693693       0.00000000
Si       0.00569881      -2.71358820       2.75717891       0.00000000
