10
Lattice="16.28999089631971 0.0 0.0 0.0 16.28999089631971 0.0 0.0 0.0 34.56954931742767" Properties=species:S:1:pos:R:3:initial_magmoms:R:1 pbc="T T T"
Si       1.35635427       1.35709942       1.35657901       0.00000000
Si      -1.35713619      -1.35774704       1.35778895       0.00000000
Si      -1.35770634       1.35815827      -1.35775438       0.00000000
Si       1.35834165      -1.35764930      -1.35768524       0.00000000
Si      -2.71485882       2.71472757      -0.00017285       0.00000000
Si      -2.71482624      -2.71502984      -0.00013828       0.00000000
Si      -2.71458189       0.00023623      -2.71537048       0.00000000
Si       0.00086337      -2.71459001      -2.71537048       0.00000000
Si       2.71515226      -2.71519274      -0.00031113       0.00000000
Si       2.71530991       2.71503708      -0.00013828       0.00000000
