10
Lattice="16.28999089631971 0.0 0.0 0.0 16.28999089631971 0.0 0.0 0.0 34.56954931742767" Properties=species:S:1:pos:R:3:initial_magmoms:R:1 pbc="T T T"
Si      -1.35635427      -1.35709942      -1.35657901       0.00000000
Si       1.35895564       1.35793766      -1.35671729       0.00000000
Si       1.35729283      -1.35675935       1.36273240       0.00000000
Si      -1.35808101       1.35922457       1.35996683       0.00000000
Si      -2.71345788       2.71414532      -0.00010371       0.00000000
Si      -2.71349046      -2.71484646       0.00120993       0.00000000
Si      -2.71406061       0.00105885      -2.71433339       0.00000000
Si       0.00198738      -2.71474872      -2.71426425       0.00000000
Si       0.00148239       2.71548110      -2.71409140       0.00000000
Si       2.71517063       2.71468289       0.00065682       0.00000000
