10
Lattice="16.28999089631971 0.0 0.0 0.0 16.28999089631971 0.0 0.0 0.0 34.56954931742767" Properties=species:S:1:pos:R:3:initial_magmoms:R:1 pbc="T T T"
Si       1.43980861      -1.83418625      -0.11781309       0.00000000
Si      -2.08736802       0.18841666       1.18117302       0.00000000
Si      -0.60134535       1.01904701      -2.09709374       0.00000000
Si       1.55853665       1.11967034       1.65895903       0.00000000
Si      -2.36869632       2.30343206      -0.95716222       0.00000000
Si      -1.90174347       2.22683648       2.28643127       0.00000000
Si      -2.25318393      -1.85611259       2.32860614       0.00000000
Si       2.11159355       3.20034317       0.49652271       0.00000000
Si       0.49783869      -3.80483642       0.68274898       0.00000000
Si      -1.71646101      -0.58337650      -3.47749119       0.00000000
