10
Lattice="16.28999089631971 0.0 0.0 0.0 16.28999089631971 0.0 0.0 0.0 34.56954931742767" Properties=species:S:1:pos:R:3:initial_magmoms:R:1 pbc="T T T"
Si       0.25559010      -1.71665649      -1.56389272       0.00000000
Si      -1.13189436      -1.02294684       1.79879293       0.00000000
Si       1.92179061       0.69900390       1.27444172       0.00000000
Si      -1.56216213       1.75542669      -0.61803475       0.00000000
Si       0.44605278      -0.18489150      -3.28231140       0.00000000
Si      -1.65825684       2.40367095       1.60748494       0.00000000
Si       0.68126409       2.56839543       2.04689873       0.00000000
Si       0.54973863      -2.56232741       2.39867866       0.00000000
Si      -2.59472007      -2.36648088       0.64655464       0.00000000
Si      -1.45645632      -3.34336679      -1.12949152       0.00000000
