10
Lattice="16.28999089631971 0.0 0.0 0.0 16.28999089631971 0.0 0.0 0.0 34.56954931742767" Properties=species:S:1:pos:R:3:initial_magmoms:R:1 pbc="T T T"
Si      -0.23832270       2.02471668      -1.17107871       0.00000000
Si      -1.37704257       0.77727735       1.77767093       0.00000000
Si       2.37439782      -0.24773832       0.21803027       0.00000000
Si      -1.05547797      -2.08789649      -0.63310708       0.00000000
Si      -2.05938180      -1.52011438       2.37202552       0.00000000
Si      -0.59461758      -3.17781152       1.58297512       0.00000000
Si      -0.14946075       1.55952315      -3.42300955       0.00000000
Si       2.85327495      -2.49236090      -0.26781045       0.00000000
Si      -2.38909140       2.87081928      -0.70912556       0.00000000
Si      -0.16203663       2.40792264       3.05612272       0.00000000
