10
Lattice="16.28999089631971 0.0 0.0 0.0 16.28999089631971 0.0 0.0 0.0 34.56954931742767" Properties=species:S:1:pos:R:3:initial_magmoms:R:1 pbc="T T T"
Si       1.35531791      -1.35597960       1.35861862       0.00000000
Si       1.35627328       1.35796698      -1.35740868       0.00000000
Si      -1.35835794      -1.35674523      -1.35751239       0.00000000
Si      -1.36006839       1.35980775       1.35837663       0.00000000
Si       2.71373222       2.71336014      -0.00076053       0.00000000
Si       2.71297148      -2.71521720       0.00003457       0.00000000
Si       2.71402381       0.00011403      -2.71474823       0.00000000
Si      -0.00071676      -2.71441899      -2.71471366       0.00000000
Si      -2.71433754       2.71650411      -0.00010371       0.00000000
Si      -2.71630863       0.00076563      -2.71474823       0.00000000
