10
Lattice="16.28999089631971 0.0 0.0 0.0 16.28999089631971 0.0 0.0 0.0 34.56954931742767" Properties=species:S:1:pos:R:3:initial_magmoms:R:1 pbc="T T T"
Si      -1.71532071      -1.08737379       1.18456084       0.00000000
Si      -1.37394747       1.26210033      -1.45762586       0.00000000
Si       1.33561710      -1.45819935      -1.45185274       0.00000000
Si       1.84135644       0.95635332       1.46810044       0.00000000
Si      -0.60916455      -2.56492566       2.55524424       0.00000000
Si       2.68182270       2.60073108      -0.05185435       0.00000000
Si      -2.84346837       2.53035828      -0.00387179       0.00000000
Si      -0.01845657       2.61166167      -2.83110939       0.00000000
Si      -2.72267802      -2.76297948      -0.07812723       0.00000000
Si       2.79201137      -2.69773803      -0.00401007       0.00000000
