10
Lattice="16.28999089631971 0.0 0.0 0.0 16.28999089631971 0.0 0.0 0.0 34.56954931742767" Properties=species:S:1:pos:R:3:initial_magmoms:R:1 pbc="T T T"
Si       1.43752734       1.12747977       1.44563022       0.00000000
Si       1.43049006      -1.21805217      -1.45689990       0.00000000
Si      -1.74407256      -0.93631662       1.33549158       0.00000000
Si      -1.26042246       1.50597792      -1.44704757       0.00000000
Si       2.78215281      -2.57913054      -0.04901965       0.00000000
Si      -2.74313826      -2.64950334      -0.00103709       0.00000000
Si       0.08187354      -2.56819995      -2.82827469       0.00000000
Si      -3.41171244       1.07553096       1.38133082       0.00000000
Si       2.72652246       2.72170062       0.00082967       0.00000000
Si      -2.63355543       0.14677290      -2.82371151       0.00000000
