10
Lattice="16.28999089631971 0.0 0.0 0.0 16.28999089631971 0.0 0.0 0.0 34.56954931742767" Properties=species:S:1:pos:R:3:initial_magmoms:R:1 pbc="T T T"
Si       0.16640235      -0.43109856      -2.26116091       0.00000000
Si      -1.25634996       1.75721859       0.92819292       0.00000000
Si       2.19232449       0.88894530       0.27188966       0.00000000
Si      -0.60548301      -2.24652132       0.73902824       0.00000000
Si       0.00019548       1.83115890       2.93976155       0.00000000
Si       0.58748256      -2.29399038       2.79315201       0.00000000
Si      -2.04125103      -0.86177358      -2.95918964       0.00000000
Si       2.04908652       2.44784943       2.05730417       0.00000000
Si       1.35780408      -2.40443658      -2.61905966       0.00000000
Si       3.61872576      -0.94055202       0.86199219       0.00000000
