10
Lattice="16.28999089631971 0.0 0.0 0.0 16.28999089631971 0.0 0.0 0.0 34.56954931742767" Properties=species:S:1:pos:R:3:initial_magmoms:R:1 pbc="T T T"
Si      -2.31155819      -0.38825586      -0.32208467       0.00000000
Si       0.79495200      -0.46429758      -2.22341095       0.00000000
Si       0.24584868       2.30334084       0.68796899       0.00000000
Si       1.33986879      -1.60663383       1.22621717       0.00000000
Si       2.51670726       2.62477512      -0.01562545       0.00000000
Si      -2.56594283      -0.11152134      -2.65214274       0.00000000
Si       3.54183696      -1.10815983       0.27752450       0.00000000
Si       3.14678817      -0.74209095      -2.05471145       0.00000000
Si       0.89844237      -1.29468033       3.56668067       0.00000000
Si      -0.98372541      -1.65374451      -3.42048597       0.00000000
