10
Lattice="16.28999089631971 0.0 0.0 0.0 16.28999089631971 0.0 0.0 0.0 34.56954931742767" Properties=species:S:1:pos:R:3:initial_magmoms:R:1 pbc="T T T"
Si       1.41510157      -1.21165020      -1.47014005       0.00000000
Si       1.61248750       1.14619698       1.37109823       0.00000000
Si      -1.28479230       1.49389074      -1.44144730       0.00000000
Si      -1.28899512      -1.59422085       1.44480055       0.00000000
Si       2.71898738      -2.64259638      -0.16614135       0.00000000
Si       0.07416837      -2.57665446      -2.82765244       0.00000000
Si       0.57314803       1.68588468       3.39659840       0.00000000
Si      -2.72652246      -2.72170062      -0.00082967       0.00000000
Si      -2.64424167       0.13768308      -2.82837840       0.00000000
Si       2.73009716       2.76356592       0.03937474       0.00000000
