10
Lattice="16.28999089631971 0.0 0.0 0.0 16.28999089631971 0.0 0.0 0.0 34.56954931742767" Properties=species:S:1:pos:R:3:initial_magmoms:R:1 pbc="T T T"
Si      -2.09498197       0.20440692       1.02761500       0.00000000
Si       1.05324624      -2.09064231       0.50101676       0.00000000
Si       0.04098564       0.02151909      -2.40137509       0.00000000
Si       0.87979032       1.96452513       1.10691759       0.00000000
Si       3.25410669      -1.35231435       0.35001688       0.00000000
Si      -1.60643835      -0.38336886       3.24960859       0.00000000
Si      -0.86102424       3.52489536       0.84857920       0.00000000
Si      -0.48498588      -2.24924175      -3.02196798       0.00000000
Si       2.27255274       0.36652500      -3.10569548       0.00000000
Si       0.79117272      -3.54869505      -1.40552952       0.00000000
