10
Lattice="16.28999089631971 0.0 0.0 0.0 16.28999089631971 0.0 0.0 0.0 34.56954931742767" Properties=species:S:1:pos:R:3:initial_magmoms:R:1 pbc="T T T"
Si      -1.00385496       1.32123303       1.76232204       0.00000000
Si       1.29455001       1.46768013      -1.43083445       0.00000000
Si      -1.74866634      -0.84797595      -1.65052405       0.00000000
Si       1.48605525      -1.50899157       1.60095129       0.00000000
Si       2.12543775      -2.88210825      -0.23182353       0.00000000
Si      -3.74675606      -0.13525587      -0.48062071       0.00000000
Si       3.54118536       0.54564984      -1.38897070       0.00000000
Si      -2.26931755      -0.12510720       3.13985855       0.00000000
Si       1.64336778       3.71802960      -0.23825347       0.00000000
Si      -1.68243120      -3.16457685      -1.97506316       0.00000000
