10
Lattice="16.28999089631971 0.0 0.0 0.0 16.28999089631971 0.0 0.0 0.0 34.56954931742767" Properties=species:S:1:pos:R:3:initial_magmoms:R:1 pbc="T T T"
Si       1.35425528      -1.35404109      -1.36117677       0.00000000
Si       1.35714512       1.35762489       1.35723583       0.00000000
Si      -1.35841321      -1.35713619       1.35699385       0.00000000
Si      -1.35733807       1.35637056      -1.36110763       0.00000000
Si      -2.70790939      -0.00954594      -2.70051939       0.00000000
Si       2.71407769      -2.71494027       0.00010371       0.00000000
Si      -0.00056003       2.71472850       2.71464452       0.00000000
Si       2.71463155      -0.00004887       2.71485193       0.00000000
Si      -0.00088560      -2.71510317       2.71474823       0.00000000
Si      -2.71484893       2.71533123      -0.00041483       0.00000000
