10
Lattice="16.28999089631971 0.0 0.0 0.0 16.28999089631971 0.0 0.0 0.0 34.56954931742767" Properties=species:S:1:pos:R:3:initial_magmoms:R:1 pbc="T T T"
Si       1.62455283       0.55382742       1.55068714       0.00000000
Si       1.42964298      -1.30680009      -1.29552915       0.00000000
Si      -1.30388581       1.43094618      -1.30399870       0.00000000
Si      -1.03159683      -1.57312530       1.40027495       0.00000000
Si       0.28228941       2.14783650       2.68114660       0.00000000
Si      -2.38158334      -0.31387572       2.83708993       0.00000000
Si      -2.64481901       0.06594192      -2.66151109       0.00000000
Si       0.07128504      -2.65158846      -2.66344699       0.00000000
Si      -2.66335703      -2.65823478       0.11629203       0.00000000
Si      -2.71898738       2.64259638       0.16614135       0.00000000
