10
Lattice="16.28999089631971 0.0 0.0 0.0 16.28999089631971 0.0 0.0 0.0 34.56954931742767" Properties=species:S:1:pos:R:3:initial_magmoms:R:1 pbc="T T T"
Si      -1.54625399       0.79649955       1.62138191       0.00000000
Si       1.41998301       1.92647169      -0.38348022       0.00000000
Si       1.20946734      -1.73472210       1.27572079       0.00000000
Si      -1.41233390      -0.31322412      -2.02688295       0.00000000
Si       0.37893472       2.26779606      -2.70399709       0.00000000
Si      -0.23773137       2.12151186       3.04440363       0.00000000
Si       3.48032592      -1.41328782       0.57212636       0.00000000
Si       0.96941790       3.39263685       1.47404641       0.00000000
Si      -2.47796054      -1.15878915       2.69445589       0.00000000
Si      -0.69214907      -2.26831734      -3.15986599       0.00000000
