10
Lattice="16.28999089631971 0.0 0.0 0.0 16.28999089631971 0.0 0.0 0.0 34.56954931742767" Properties=species:S:1:pos:R:3:initial_magmoms:R:1 pbc="T T T"
Si      -1.35771774       1.35262386      -1.35785809       0.00000000
Si       1.35728280       1.35549090       1.35758153       0.00000000
Si      -1.35755158      -1.35917244       1.35737411       0.00000000
Si       1.35610992      -1.35962856      -1.36200643       0.00000000
Si       2.71536381       2.71181113       0.00065682       0.00000000
Si      -2.71360625       2.71384111      -0.00024199       0.00000000
Si       0.00008145       2.71343685       2.71450624       0.00000000
Si      -0.00105885       2.70242867      -2.72583469       0.00000000
Si       2.70987408       0.01409085      -2.71862693       0.00000000
Si       2.71476108      -0.00172674       2.71516306       0.00000000
