10
Lattice="16.28999089631971 0.0 0.0 0.0 16.28999089631971 0.0 0.0 0.0 34.56954931742767" Properties=species:S:1:pos:R:3:initial_magmoms:R:1 pbc="T T T"
Si       1.77245626       0.27982962      -1.49181516       0.00000000
Si       0.86464714      -1.55971863       1.55366012       0.00000000
Si       0.17550683       2.00171520       1.29255617       0.00000000
Si      -1.81653115      -0.16182486      -1.62563397       0.00000000
Si       1.42429009      -3.15750699      -0.12690489       0.00000000
Si      -2.06115808       2.64344346       1.07210603       0.00000000
Si      -2.83921735       1.87839990      -1.03114109       0.00000000
Si       2.15219245      -2.00021652      -2.08789824       0.00000000
Si       3.44679133       1.42508178      -0.29764399       0.00000000
Si       2.03594701       3.19957545       0.38825083       0.00000000
