10
Lattice="16.290000149 0.0 0.0 0.0 16.290000149 0.0 0.0 0.0 29.1751946751" Properties=species:S:1:pos:R:3:initial_magmoms:R:1 pbc="T T T"
Si      -0.68439178       2.04925758       0.76780360       0.00000000
Si       2.05543964      -0.60676993       0.89176900       0.00000000
Si      -1.23590602      -1.79058867       0.84535127       0.00000000
Si      -0.63050446      -0.68141234      -2.14691505       0.00000000
Si      -0.66619585      -2.82311404      -1.16149368       0.00000000
H        0.69610429       2.31261802      -2.14014641       0.00000000
Si      -1.29855736       1.53294603       2.94905785       0.00000000
Si      -3.51525171       0.78435536      -0.77083782       0.00000000
Si       1.53064099      -1.85436402       2.82812667       0.00000000
Si       1.08154198       3.53223404       0.43328082       0.00000000
