10
Lattice="16.290000149 0.0 0.0 0.0 16.290000149 0.0 0.0 0.0 29.1751946751" Properties=species:S:1:pos:R:3:initial_magmoms:R:1 pbc="T T T"
Si      -1.40398624       1.42511437      -1.21765592       0.00000000
Si      -1.32774904      -1.37995849       1.37852503       0.00000000
Si       1.20285361      -1.46681677      -1.43664494       0.00000000
Si       1.30425886       1.44730135       1.37468266       0.00000000
H        3.21489669       1.73089397      -0.51409611       0.00000000
Si      -0.00666261       2.65005722      -2.64385614       0.00000000
Si       2.66691737      -2.67672395       0.02759973       0.00000000
Si       2.53579916      -0.13543506      -2.84259757       0.00000000
Si      -2.91248913       0.14366151      -2.49958480       0.00000000
Si       2.73307106       0.08219934       2.70842668       0.00000000
