10
Lattice="16.290000149 0.0 0.0 0.0 16.290000149 0.0 0.0 0.0 29.1751946751" Properties=species:S:1:pos:R:3:initial_magmoms:R:1 pbc="T T T"
Si       1.16605450       0.23728014      -2.01253410       0.00000000
Si       1.57421674       0.76911607       1.58339617       0.00000000
Si      -0.90756478      -1.87178618       1.12339087       0.00000000
Si      -1.93565927       1.46855980      -0.34762244       0.00000000
Si      -1.93999241      -0.39514653       2.60724127       0.00000000
H       -2.81510751       0.45887301       1.71004569       0.00000000
Si      -0.04802292       0.91004086       3.25017504       0.00000000
H        1.84021616      -2.88246666      -0.24693885       0.00000000
Si       2.39875139       2.72053265       0.58881378       0.00000000
Si       2.69539229       2.04151169      -1.61869815       0.00000000
