10
Lattice="16.290000149 0.0 0.0 0.0 16.290000149 0.0 0.0 0.0 29.1751946751" Properties=species:S:1:pos:R:3:initial_magmoms:R:1 pbc="T T T"
Si      -1.33721353       1.15548229       1.55668919       0.00000000
Si       1.42881220      -1.36510201       1.33374402       0.00000000
Si      -1.30425886      -1.44730135      -1.37468266       0.00000000
Si       0.83429236       1.99930430      -1.08179200       0.00000000
H        1.91063783       0.28359261      -1.88877876       0.00000000
Si      -0.91142551       3.54320535      -0.63699661       0.00000000
Si      -2.74361070       2.52011189       0.30347746       0.00000000
Si      -2.70824510      -0.02218698      -2.59233858       0.00000000
Si       0.08537589       2.61589709       2.78100290       0.00000000
Si      -2.63200790      -2.82725985       0.00384237       0.00000000
