10
Lattice="16.290000149 0.0 0.0 0.0 16.290000149 0.0 0.0 0.0 29.1751946751" Properties=species:S:1:pos:R:3:initial_magmoms:R:1 pbc="T T T"
Si       1.35625654       1.36787131       1.33689495       0.00000000
Si      -1.32760406       1.36034533      -1.37552290       0.00000000
Si       1.38406357      -1.35439622      -1.33453175       0.00000000
Si      -1.34621050      -1.35620279       1.37528950       0.00000000
Si       2.70941798       0.00045612       2.67478185       0.00000000
Si      -2.69886206      -0.00904095      -2.69896808       0.00000000
Si       0.02713914      -2.71707428      -2.68440966       0.00000000
Si      -2.69347007       2.71161713      -0.02739551       0.00000000
Si      -0.02181231       2.71459820       2.69219944       0.00000000
Si       0.05466924      -2.69578325       2.71163012       0.00000000
