10
Lattice="16.290000149 0.0 0.0 0.0 16.290000149 0.0 0.0 0.0 29.1751946751" Properties=species:S:1:pos:R:3:initial_magmoms:R:1 pbc="T T T"
Si       1.35589816       1.33990138      -1.31504856       0.00000000
Si       1.43422048      -1.31926195       1.28224981       0.00000000
Si      -1.33555195       1.44166501       1.28919350       0.00000000
Si      -1.30329775      -1.29468034      -1.47748729       0.00000000
Si      -0.05049900       2.70453098      -2.56826029       0.00000000
Si       0.05437602      -2.63712296       2.64560665       0.00000000
Si      -2.67051746      -2.64453491      -0.12609519       0.00000000
Si      -2.69985575       0.08034228       2.61859042       0.00000000
Si       2.78055642      -2.59869485      -0.17805621       0.00000000
Si       2.76956067       0.08495235       2.62077856       0.00000000
