10
Lattice="16.290000149 0.0 0.0 0.0 16.290000149 0.0 0.0 0.0 29.1751946751" Properties=species:S:1:pos:R:3:initial_magmoms:R:1 pbc="T T T"
Si       1.38830712       1.47918088       1.14500969       0.00000000
Si       1.42952733      -1.21987666      -1.38751391       0.00000000
Si      -1.25957539       1.36594909      -1.41911064       0.00000000
Si      -1.63416395      -1.08434386       1.42777568       0.00000000
H        0.22926709      -2.66170457       1.68985645       0.00000000
H       -1.19039176       1.48199905       2.71174682       0.00000000
Si      -2.78645340       2.20581263       0.08297425       0.00000000
Si      -0.10463067       2.54220113       2.57678237       0.00000000
Si       2.85588138      -2.42460362       0.00236319       0.00000000
Si       0.05894585      -2.62071893      -2.70287756       0.00000000
