10
Lattice="16.290000149 0.0 0.0 0.0 16.290000149 0.0 0.0 0.0 29.1751946751" Properties=species:S:1:pos:R:3:initial_magmoms:R:1 pbc="T T T"
Si       1.34698753       1.35698959       1.36175221       0.00000000
Si      -1.35244468       1.36761067      -1.35550872       0.00000000
Si      -1.35993808      -1.34475580       1.37196353       0.00000000
Si       1.37777563      -1.34890975      -1.35019883       0.00000000
Si      -0.05033610      -2.75283084      -2.59285498       0.00000000
Si       2.67797828      -2.69814530       0.06829913       0.00000000
Si      -0.02249649       2.72033228       2.69791778       0.00000000
Si      -2.67196727       0.02660157      -2.74983795       0.00000000
Si       2.69211800      -0.00239463       2.73082740       0.00000000
Si       2.69840594       2.73282671       0.01534615       0.00000000
