10
Lattice="16.290000149 0.0 0.0 0.0 16.290000149 0.0 0.0 0.0 29.1751946751" Properties=species:S:1:pos:R:3:initial_magmoms:R:1 pbc="T T T"
Si       1.37984446       1.31786101      -1.36335685       0.00000000
Si      -1.37360539      -1.32633181      -1.36361942       0.00000000
Si       1.35545833      -1.37039626       1.33919979       0.00000000
Si      -1.36951660       1.37920915       1.32186972       0.00000000
Si      -0.05437602       2.63712296      -2.64560665       0.00000000
Si       0.04507443      -2.65722482      -2.66538744       0.00000000
Si       2.72590346      -0.00884547       2.66652527       0.00000000
Si      -2.72935695       0.01648548       2.66553331       0.00000000
Si      -0.01542663       2.73237059       2.68268833       0.00000000
Si      -0.00175932      -2.72606636       2.69567129       0.00000000
