10
Lattice="16.290000149 0.0 0.0 0.0 16.290000149 0.0 0.0 0.0 29.1751946751" Properties=species:S:1:pos:R:3:initial_magmoms:R:1 pbc="T T T"
Si      -2.24837840       0.49166478      -0.28746319       0.00000000
Si       0.94426126      -0.80772500      -1.98726839       0.00000000
Si       0.28339599      -1.83644453       1.55722602       0.00000000
Si       1.33429436       1.97578154       0.47847319       0.00000000
Si       2.96655564       0.78578074       1.68664047       0.00000000
Si       1.62989434      -0.62143093       3.03852359       0.00000000
Si       2.77540878      -1.99936946      -1.07037954       0.00000000
Si      -0.94482001      -1.67439536      -3.07742871       0.00000000
H       -1.96758767      -0.54079868      -3.04017199       0.00000000
Si      -2.97773058       1.13184550       1.89002425       0.00000000
