10
Lattice="16.290000149 0.0 0.0 0.0 16.290000149 0.0 0.0 0.0 29.1751946751" Properties=species:S:1:pos:R:3:initial_magmoms:R:1 pbc="T T T"
Si      -1.33019254       1.31432608       1.41930904       0.00000000
Si      -1.42614064      -1.36021501      -1.27915986       0.00000000
Si       1.32841693      -1.39562947       1.36916563       0.00000000
Si       1.33621984       1.36450010      -1.40743473       0.00000000
Si       0.01402569      -2.55510281      -2.64037846       0.00000000
Si       2.63319707       2.64888434       0.09786819       0.00000000
Si      -2.60918724       2.68669343       0.03170468       0.00000000
Si      -2.74198984      -0.07604172       2.67595469       0.00000000
Si       2.66510918      -0.07069860       2.77404170       0.00000000
Si       2.70936911      -2.75169054       0.04359941       0.00000000
