10
Lattice="16.290000149 0.0 0.0 0.0 16.290000149 0.0 0.0 0.0 29.1751946751" Properties=species:S:1:pos:R:3:initial_magmoms:R:1 pbc="T T T"
Si      -0.22125078       2.13399002       0.91793915       0.00000000
Si      -1.81516214      -0.75965158      -1.38103702       0.00000000
Si       0.33422193      -1.95165605       1.36604097       0.00000000
Si       2.13014558       0.58057561      -0.98510045       0.00000000
H        2.21456036      -0.20281050       1.55833467       0.00000000
H       -1.35350353       2.19527300       1.92238275       0.00000000
H        2.86001904      -0.63513082       1.59906324       0.00000000
Si       1.92736766      -2.76180663      -0.15585389       0.00000000
H       -1.05547798      -1.11594646       3.00778752       0.00000000
H        1.06235236      -1.86142574       2.68190060       0.00000000
