10
Lattice="16.290000149 0.0 0.0 0.0 16.290000149 0.0 0.0 0.0 29.1751946751" Properties=species:S:1:pos:R:3:initial_magmoms:R:1 pbc="T T T"
Si       1.41179730       1.39036780      -1.25664566       0.00000000
Si       1.36545225      -1.34780203       1.37205106       0.00000000
Si      -1.28171774       1.34490241       1.45627984       0.00000000
Si      -1.39048998      -1.28695888      -1.43432843       0.00000000
Si      -2.69424385      -2.64069047      -0.00099196       0.00000000
Si      -2.59854010       2.78079914       0.18146971       0.00000000
Si       0.13280260       2.76273516      -2.64425001       0.00000000
Si       2.74198984       0.07604172      -2.67595469       0.00000000
Si       2.71672405      -2.71717202       0.01304131       0.00000000
Si       0.01814217      -2.69532713       2.74007593       0.00000000
