10
Lattice="16.290000149 0.0 0.0 0.0 16.290000149 0.0 0.0 0.0 29.1751946751" Properties=species:S:1:pos:R:3:initial_magmoms:R:1 pbc="T T T"
Si      -0.83447155       1.24259632      -1.71476331       0.00000000
Si      -1.83218519      -1.02309346       0.94047407       0.00000000
Si       1.04070295       1.85397795       0.95005520       0.00000000
Si       1.74571787      -1.54390105      -0.44479539       0.00000000
H       -1.01108773       2.63109566      -1.10660638       0.00000000
Si      -0.42578802      -2.38772306       2.19368581       0.00000000
Si       1.49247352      -1.03526209      -2.73860842       0.00000000
Si       2.45719991       0.51082182       2.20478113       0.00000000
Si       1.06153786       1.25450431      -3.05218341       0.00000000
Si       0.99680140      -0.92730826       3.41799951       0.00000000
