10
Lattice="16.290000149 0.0 0.0 0.0 16.290000149 0.0 0.0 0.0 29.1751946751" Properties=species:S:1:pos:R:3:initial_magmoms:R:1 pbc="T T T"
Si       1.27210191      -1.35850456      -1.42109456       0.00000000
Si       1.37058148       1.40084227       1.31536365       0.00000000
Si      -1.39016467       1.33607323      -1.37073817       0.00000000
Si      -1.29737683      -1.35966115       1.44075864       0.00000000
Si       2.61671925      -2.69316056      -0.04347104       0.00000000
Si      -0.05894585       2.62071893       2.70287756       0.00000000
Si      -2.72715014      -2.62987391       0.04183723       0.00000000
Si       2.61127839       0.01373247      -2.78167976       0.00000000
Si      -0.03553712       2.70651836      -2.74150552       0.00000000
Si      -2.77792607       2.67247226      -0.02409871       0.00000000
