10
Lattice="16.290000149 0.0 0.0 0.0 16.290000149 0.0 0.0 0.0 29.1751946751" Properties=species:S:1:pos:R:3:initial_magmoms:R:1 pbc="T T T"
Si       1.31952259       1.34100910       1.39432923       0.00000000
Si      -1.35804193       1.34174215      -1.37895391       0.00000000
Si       1.41898933      -1.38215764      -1.28398573       0.00000000
Si      -1.37479130      -1.36107838       1.36109869       0.00000000
Si       0.03191211      -2.65728998      -2.66143799       0.00000000
Si       2.67468770       2.65544921      -0.00525445       0.00000000
Si       0.12745296       2.54040923      -2.81746022       0.00000000
Si       2.62163117      -2.77943241       0.15698297       0.00000000
Si      -2.86464540      -0.04417848      -2.54167615       0.00000000
Si       2.67196727      -0.02660157       2.74983795       0.00000000
