10
Lattice="16.290000149 0.0 0.0 0.0 16.290000149 0.0 0.0 0.0 29.1751946751" Properties=species:S:1:pos:R:3:initial_magmoms:R:1 pbc="T T T"
Si      -1.72636535       1.61640784       0.26619448       0.00000000
Si       0.33448257      -0.19362294       2.36351170       0.00000000
Si      -1.09691974      -1.64491535      -1.40274336       0.00000000
Si       1.63416395       1.08434386      -1.42777568       0.00000000
H        1.86343104      -1.57736071       0.26208077       0.00000000
H        0.44377218       2.56634291       1.28397114       0.00000000
H       -1.10055241       0.11139102       2.80869599       0.00000000
Si      -2.44029089      -0.22038741      -2.76621691       0.00000000
Si      -1.15228945       3.29015649      -1.34480142       0.00000000
Si       0.37458855       2.45029295      -2.84688632       0.00000000
