10
Lattice="16.290000149 0.0 0.0 0.0 16.290000149 0.0 0.0 0.0 29.1751946751" Properties=species:S:1:pos:R:3:initial_magmoms:R:1 pbc="T T T"
Si       1.33976129       1.35097858      -1.37067982       0.00000000
Si      -1.38215113       1.39187919       1.29987162       0.00000000
Si       1.35394988      -1.35068536       1.38229155       0.00000000
Si      -1.38557203      -1.36702423      -1.34558915       0.00000000
Si      -0.10343010      -2.73898434       2.60426540       0.00000000
Si      -2.69414774       0.05997978       2.67991668       0.00000000
Si       2.69621331      -2.67876020      -0.02617015       0.00000000
Si       2.68723752       2.69791887       0.01429585       0.00000000
Si      -0.06111845       2.69055905      -2.70702044       0.00000000
Si       2.69424222      -0.00659745      -2.73222781       0.00000000
