10
Lattice="16.290000149 0.0 0.0 0.0 16.290000149 0.0 0.0 0.0 29.1751946751" Properties=species:S:1:pos:R:3:initial_magmoms:R:1 pbc="T T T"
Si      -1.36216981       1.35070165       1.35151172       0.00000000
Si      -1.36026388      -1.34304535      -1.36253994       0.00000000
Si       1.32250366      -1.36951660       1.38888514       0.00000000
Si       1.35584929       1.37862271      -1.35486687       0.00000000
Si       0.01304829       2.71314839       2.68085029       0.00000000
Si       2.70027929       0.00982287       2.69389160       0.00000000
Si       2.69568551      -2.70835913       0.02719128       0.00000000
Si       0.00289962      -2.70539924      -2.70763312       0.00000000
Si      -2.72515412      -2.68993189      -0.01222441       0.00000000
Si      -2.71598285       2.70404228      -0.01575461       0.00000000
