10
Lattice="16.290000149 0.0 0.0 0.0 16.290000149 0.0 0.0 0.0 29.1751946751" Properties=species:S:1:pos:R:3:initial_magmoms:R:1 pbc="T T T"
Si      -0.85439422      -0.89736724      -0.83257253       0.00000000
H        1.30168504       1.00242145       0.49002657       0.00000000
H        0.71247574      -1.08209584       1.45482108       0.00000000
Si       2.11131434       1.79289371      -0.50368056       0.00000000
Si      -1.05953419       2.81393463      -0.04988958       0.00000000
Si      -0.76988170       1.94123045       2.19242835       0.00000000
Si       0.61133113      -2.32174856      -1.92617553       0.00000000
Si      -2.12244041       0.42862248      -2.23977970       0.00000000
Si      -2.65289168      -1.70787620       0.37565981       0.00000000
Si       1.87940990      -1.51423696       2.29635040       0.00000000
