10
Lattice="16.290000149 0.0 0.0 0.0 16.290000149 0.0 0.0 0.0 29.1751946751" Properties=species:S:1:pos:R:3:initial_magmoms:R:1 pbc="T T T"
Si       1.36459702      -1.35457867      -1.31947735       0.00000000
Si      -1.17728157      -1.54238608       1.30704872       0.00000000
Si       1.54722421       1.30492675       1.19384897       0.00000000
Si      -1.02377438       1.56173860      -1.47658578       0.00000000
H        2.72521928      -0.78644863      -1.04415104       0.00000000
Si       0.14620275       2.48624498       2.67005547       0.00000000
Si       2.33921144       2.80308386      -0.51266652       0.00000000
Si      -1.39588685      -3.41334147      -0.12136881       0.00000000
Si      -2.62962956      -0.32386149       2.65695580       0.00000000
Si       0.91271242      -3.56865033      -0.71858504       0.00000000
