10
Lattice="16.290000149 0.0 0.0 0.0 16.290000149 0.0 0.0 0.0 29.1751946751" Properties=species:S:1:pos:R:3:initial_magmoms:R:1 pbc="T T T"
Si       2.23156712      -0.50635836       0.32938795       0.00000000
Si      -1.04423788       0.67370391       2.07292676       0.00000000
Si      -0.04777857       2.06858567      -1.28680114       0.00000000
Si      -0.64718542      -1.77038093      -1.58806420       0.00000000
Si      -2.35118459       2.00073782      -0.92476615       0.00000000
H       -0.65823004      -2.91582858       1.54144224       0.00000000
Si       2.80127730      -1.53888373      -1.67745699       0.00000000
Si      -3.10806687       1.40568692       1.22725456       0.00000000
Si       3.46747314       1.28423031      -0.51596332       0.00000000
Si       1.17690364      -3.22369329      -1.75054086       0.00000000
