10
Lattice="16.290000149 0.0 0.0 0.0 16.290000149 0.0 0.0 0.0 29.1751946751" Properties=species:S:1:pos:R:3:initial_magmoms:R:1 pbc="T T T"
Si       1.35132067       1.35501850      -1.33680742       0.00000000
Si       1.39711186      -1.44920728       1.19647473       0.00000000
Si      -1.37863900      -1.36510201      -1.33663237       0.00000000
Si      -1.30613221       1.34584723       1.42952619       0.00000000
Si      -0.03318273      -2.77171095       2.41844859       0.00000000
Si       2.65647548       2.66864574       0.10975708       0.00000000
Si      -0.02313180       2.70253057      -2.67180598       0.00000000
Si       2.70547580      -0.02992473      -2.67236031       0.00000000
Si      -2.64456749      -0.03479544       2.74506489       0.00000000
Si      -2.70811478       2.68716096       0.07089572       0.00000000
