10
Lattice="16.290000149 0.0 0.0 0.0 16.290000149 0.0 0.0 0.0 29.1751946751" Properties=species:S:1:pos:R:3:initial_magmoms:R:1 pbc="T T T"
Si       1.35160901       1.35286822       1.36163551       0.00000000
Si       1.38822241      -1.36114354      -1.32321178       0.00000000
Si      -1.33858189      -1.35728281       1.38016176       0.00000000
Si      -1.34547256       1.38061009      -1.35460429       0.00000000
Si      -2.68941386       2.71142165       0.03212189       0.00000000
Si       0.05333102      -2.73836532      -2.66824660       0.00000000
Si      -2.70179426       0.03101616      -2.70909188       0.00000000
Si       2.70962975       2.70446582      -0.00177969       0.00000000
Si       2.69262299      -0.00703728       2.72175391       0.00000000
Si      -2.69726564      -2.72262917       0.04918938       0.00000000
