10
Lattice="16.290000149 0.0 0.0 0.0 16.290000149 0.0 0.0 0.0 29.1751946751" Properties=species:S:1:pos:R:3:initial_magmoms:R:1 pbc="T T T"
Si      -1.36950031       1.34832331      -1.34083360       0.00000000
Si      -1.37541358      -1.34241004       1.34165050       0.00000000
Si       1.35519769      -1.35270532      -1.36586591       0.00000000
Si       1.35769006       1.36272367       1.35760933       0.00000000
Si       0.01034415       2.69161301      -2.67603638       0.00000000
Si      -0.01361844      -2.73685035       2.64633603       0.00000000
Si       2.71793765      -2.69221574      -0.00154629       0.00000000
Si      -2.72642474       0.02754639       2.69333727       0.00000000
Si       2.71054199       0.01767465      -2.71238867       0.00000000
Si      -2.72950356      -2.69557148      -0.01916810       0.00000000
