10
Lattice="16.290000149 0.0 0.0 0.0 16.290000149 0.0 0.0 0.0 29.1751946751" Properties=species:S:1:pos:R:3:initial_magmoms:R:1 pbc="T T T"
Si       0.31511050      -0.79390945      -2.16176522       0.00000000
Si      -2.25361075       0.57045952      -0.06791985       0.00000000
Si       1.29915683       1.97332826       0.11824706       0.00000000
Si       1.02377438      -1.56173860       1.47658578       0.00000000
Si      -2.55025165       1.24948048       2.13959208       0.00000000
Si       3.36298582       1.24134525       0.96391926       0.00000000
Si       2.57099860      -0.25681185       2.67043474       0.00000000
Si       1.92728295      -2.49052925      -2.05419628       0.00000000
Si       2.38837140      -2.91631728       0.15710842       0.00000000
Si       1.22808356       0.91937503      -3.44766193       0.00000000
