10
Lattice="16.290000149 0.0 0.0 0.0 16.290000149 0.0 0.0 0.0 29.1751946751" Properties=species:S:1:pos:R:3:initial_magmoms:R:1 pbc="T T T"
Si      -1.49293779       1.06302025       1.43177268       0.00000000
Si      -1.38830712      -1.47918088      -1.14500969       0.00000000
Si       1.56120918      -1.07714368       1.36916271       0.00000000
Si       1.32485757       1.48776571      -1.25196595       0.00000000
H       -2.57869888       0.00281817       1.56673713       0.00000000
Si       1.99766715       0.73388080       2.85167105       0.00000000
Si      -0.31093212       0.88918966       3.44888729       0.00000000
Si      -2.64788251      -0.11323179      -2.56412033       0.00000000
Si       0.04122022      -2.69905754      -2.53252360       0.00000000
Si      -0.08479271       2.70348842      -2.63519111       0.00000000
