10
Lattice="16.290000149 0.0 0.0 0.0 16.290000149 0.0 0.0 0.0 29.1751946751" Properties=species:S:1:pos:R:3:initial_magmoms:R:1 pbc="T T T"
Si       1.34408791       1.29093364      -1.37085487       0.00000000
Si      -1.50301315       1.29753109       1.20715285       0.00000000
Si       1.02894157      -0.82458352       1.95774309       0.00000000
Si      -1.41968980      -1.39432627      -1.29602050       0.00000000
Si      -0.80381377      -2.11237319       2.60061850       0.00000000
Si      -2.41598621      -0.41575338       2.49304956       0.00000000
Si       2.59532282       2.60832713       0.10377617       0.00000000
Si      -0.08640216       2.65427796      -2.66401620       0.00000000
Si       2.70972749      -0.07970697      -2.71040476       0.00000000
Si      -0.07742637      -2.72240111      -2.70448220       0.00000000
