10
Lattice="16.290000149 0.0 0.0 0.0 16.290000149 0.0 0.0 0.0 29.1751946751" Properties=species:S:1:pos:R:3:initial_magmoms:R:1 pbc="T T T"
Si       1.42537501      -1.35663121       1.29826699       0.00000000
Si      -1.25848396      -1.36347301      -1.45811788       0.00000000
Si       1.37806885       1.32802597      -1.39066483       0.00000000
Si      -1.43177698       1.28607922       1.40533995       0.00000000
Si      -0.02992473       2.69978082       2.66395785       0.00000000
Si      -2.69464295       2.67776814      -0.02354438       0.00000000
Si       0.07695396      -2.77376349       2.61056724       0.00000000
Si      -2.71034651      -0.31451103       2.68723966       0.00000000
Si      -2.59631651      -2.81111646      -0.20285513       0.00000000
Si       2.74982859       2.70095207      -0.06316430       0.00000000
