10
Lattice="16.290000149 0.0 0.0 0.0 16.290000149 0.0 0.0 0.0 29.1751946751" Properties=species:S:1:pos:R:3:initial_magmoms:R:1 pbc="T T T"
Si       1.36721971       1.34985457      -1.35139210       0.00000000
Si      -1.34439742      -1.36969579      -1.36235614       0.00000000
Si       1.35128809      -1.31891986       1.40808242       0.00000000
Si      -1.36324495       1.37331217       1.34987791       0.00000000
Si       2.67051746       2.64453491       0.12609519       0.00000000
Si      -2.69956253      -2.68413590       0.03722755       0.00000000
Si       0.08203644      -2.74584243      -2.65550871       0.00000000
Si      -0.00527796       2.76196953      -2.65476183       0.00000000
Si       2.76996792      -2.64981287       0.10631441       0.00000000
Si      -2.71858925      -0.01827738      -2.72318350       0.00000000
