10
Lattice="16.290000149 0.0 0.0 0.0 16.290000149 0.0 0.0 0.0 29.1751946751" Properties=species:S:1:pos:R:3:initial_magmoms:R:1 pbc="T T T"
Si       1.45879916       1.17856522      -1.41791738       0.00000000
Si      -1.39652542      -1.31957146      -1.36589801       0.00000000
Si      -1.33037173       1.43935183       1.31492894       0.00000000
Si       1.38764737      -1.35977518       1.35783690       0.00000000
Si       0.14177187      -2.59613732      -2.55604172       0.00000000
Si       0.05838336       2.34848045      -2.88192865       0.00000000
H       -0.84854611       3.08804646      -1.90759385       0.00000000
Si      -2.67173921       0.02133990       2.67486646       0.00000000
Si       2.67925379       2.66792735      -0.01830743       0.00000000
Si      -2.61259022      -2.75524176       0.07755350       0.00000000
