10
Lattice="16.290000149 0.0 0.0 0.0 16.290000149 0.0 0.0 0.0 29.1751946751" Properties=species:S:1:pos:R:3:initial_magmoms:R:1 pbc="T T T"
Si       1.36430380       1.36132273      -1.32939692       0.00000000
Si      -1.34998489       1.36475992       1.35658820       0.00000000
Si       1.38471517      -1.33825609       1.34888595       0.00000000
Si      -1.33390666      -1.35156502      -1.39480771       0.00000000
Si       2.69985575      -0.08034228      -2.61859042       0.00000000
Si      -2.68910435      -2.69531084      -0.01864295       0.00000000
Si      -0.02019960       2.71808426      -2.66900516       0.00000000
Si       0.02487483      -2.70097976       2.69254954       0.00000000
Si      -2.72083727       0.02163312       2.69855963       0.00000000
Si       0.01734885       2.72679941       2.70859590       0.00000000
