10
Lattice="16.290000149 0.0 0.0 0.0 16.290000149 0.0 0.0 0.0 29.1751946751" Properties=species:S:1:pos:R:3:initial_magmoms:R:1 pbc="T T T"
Si       1.32780443      -1.35791812       1.36714962       0.00000000
Si      -1.34385334      -1.36089919      -1.35244532       0.00000000
Si      -1.31901109       1.33486777       1.40732387       0.00000000
Si       1.35021947       1.36612828      -1.36178139       0.00000000
Si       2.63792769       0.07112214       2.69097408       0.00000000
Si      -2.66319674       2.70265763       0.03781105       0.00000000
Si      -2.68098542       0.01588275      -2.70337354       0.00000000
Si       2.70587328      -2.70464501       0.01184513       0.00000000
Si       0.02201268      -2.71217099      -2.70057272       0.00000000
Si      -2.69523917      -2.71826345       0.01441255       0.00000000
