10
Lattice="16.290000149 0.0 0.0 0.0 16.290000149 0.0 0.0 0.0 29.1751946751" Properties=species:S:1:pos:R:3:initial_magmoms:R:1 pbc="T T T"
Si       1.34394130      -1.33081156      -1.38672618       0.00000000
Si      -1.36273996       1.33951042      -1.36431963       0.00000000
Si      -1.35202114      -1.39141036       1.32703373       0.00000000
Si       1.37106415       1.34732962       1.35594635       0.00000000
Si      -2.73155610      -0.04463460       2.64788232       0.00000000
Si       2.68941386      -2.71142165      -0.03212189       0.00000000
Si      -2.69808014      -0.06470388      -2.70284839       0.00000000
Si      -2.71793765       2.69221574       0.00154629       0.00000000
Si       0.02691108       2.71226873       2.70669951       0.00000000
Si       2.71877700       2.70114266      -0.00166299       0.00000000
