10
Lattice="16.290000149 0.0 0.0 0.0 16.290000149 0.0 0.0 0.0 29.1751946751" Properties=species:S:1:pos:R:3:initial_magmoms:R:1 pbc="T T T"
H        0.53810757       0.26008614      -1.38281670       0.00000000
Si       1.68860513      -0.92523943       1.31498437       0.00000000
Si      -0.84722662       1.87592384       1.11297533       0.00000000
Si      -1.79727572      -1.59565438      -0.12615354       0.00000000
H        1.81473860       2.01018602      -0.96499874       0.00000000
H       -1.05757939       1.09916776      -2.55487180       0.00000000
H       -0.12816972      -0.65658475      -3.00393639       0.00000000
Si      -2.15889743       0.50800365       2.59615470       0.00000000
Si       2.66020589      -2.38379717      -0.19010557       0.00000000
Si       0.42658623      -2.41178339       2.63819615       0.00000000
