10
Lattice="16.290000149 0.0 0.0 0.0 16.290000149 0.0 0.0 0.0 29.1751946751" Properties=species:S:1:pos:R:3:initial_magmoms:R:1 pbc="T T T"
Si       1.27899470      -1.37236735       1.38760435       0.00000000
Si      -1.34649834      -1.21501361      -1.48129757       0.00000000
Si      -1.43187326       1.30712590       1.35306384       0.00000000
Si       1.33666130       1.40721166      -1.35188312       0.00000000
Si      -1.62989434       0.62143093      -3.03852359       0.00000000
Si      -0.29559997       2.59721246      -2.56005039       0.00000000
Si       2.60918724      -2.68669343      -0.03170468       0.00000000
Si      -2.82414683      -2.51892272      -0.10551209       0.00000000
Si      -0.07004211       2.70342326       2.67065356       0.00000000
Si       2.57997927      -0.04499135       2.81302851       0.00000000
