10
Lattice="16.290000149 0.0 0.0 0.0 16.290000149 0.0 0.0 0.0 29.1751946751" Properties=species:S:1:pos:R:3:initial_magmoms:R:1 pbc="T T T"
Si       1.40965028      -1.21572271       1.38322515       0.00000000
Si      -1.28587234      -1.41017644      -1.31848540       0.00000000
Si      -1.29036838       1.35495334       1.40586511       0.00000000
Si       1.45737998       1.38829897      -1.22197385       0.00000000
Si       2.07325601       0.67025206       2.67466515       0.00000000
Si       0.46108357       2.36687186       2.56709620       0.00000000
Si      -2.63056298      -0.04517217      -2.63755430       0.00000000
Si       0.08479271      -2.70348842       2.63519111       0.00000000
Si       0.10343010       2.73898434      -2.60426540       0.00000000
Si       0.11475979      -2.72225450      -2.64160965       0.00000000
