10
Lattice="16.290000149 0.0 0.0 0.0 16.290000149 0.0 0.0 0.0 29.1751946751" Properties=species:S:1:pos:R:3:initial_magmoms:R:1 pbc="T T T"
Si       0.73906102      -1.31549896       1.79532478       0.00000000
Si      -1.75200581       0.97502167       1.26690365       0.00000000
Si       1.40118436       1.80820631      -0.75505404       0.00000000
Si       0.11572416      -1.72781516      -1.80422321       0.00000000
H       -2.13744350      -0.24459435      -1.30652357       0.00000000
Si       2.89383708       0.55708543      -2.04220528       0.00000000
Si       2.74339893      -2.17476878       0.81503824       0.00000000
Si      -0.77810815      -3.16398229       1.72539184       0.00000000
Si      -2.78306508       0.59113153      -2.38959432       0.00000000
Si       1.55501083      -3.34213022      -0.86416927       0.00000000
