10
Lattice="16.290000149 0.0 0.0 0.0 16.290000149 0.0 0.0 0.0 29.1751946751" Properties=species:S:1:pos:R:3:initial_magmoms:R:1 pbc="T T T"
Si      -0.65487430       0.41966298      -2.13104958       0.00000000
Si      -1.90804772      -0.79004872       1.12051420       0.00000000
Si       0.85768480       1.93847744       1.03686016       0.00000000
Si       1.70600285      -1.66715120      -0.12902176       0.00000000
H       -1.21142215      -2.61752609      -0.80311142       0.00000000
Si       2.17248329       0.67455262       2.51037087       0.00000000
Si      -0.65811601      -2.16000515       2.53332883       0.00000000
Si       3.43078806      -0.72813043       1.14832691       0.00000000
Si       0.84036853      -3.39464381       1.25355017       0.00000000
Si      -2.35584353       2.01779345      -2.14540378       0.00000000
