10
Lattice="16.290000149 0.0 0.0 0.0 16.290000149 0.0 0.0 0.0 29.1751946751" Properties=species:S:1:pos:R:3:initial_magmoms:R:1 pbc="T T T"
Si      -1.03242763       1.47663964       1.48385040       0.00000000
Si       0.90756478       1.87178618      -1.12339087       0.00000000
Si      -1.34972425      -1.46453617      -1.27396405       0.00000000
Si       1.51003414      -1.30885264       1.28510898       0.00000000
H       -1.90754273       2.33065919       0.58665481       0.00000000
H        2.74778094      -1.01068048      -1.37032972       0.00000000
Si       2.31472757      -2.28490058      -0.66878299       0.00000000
Si       0.85954186       2.78182704       2.12678417       0.00000000
Si       0.42907860      -3.03771036      -1.90023878       0.00000000
Si       2.48178152       2.64090224       0.46000529       0.00000000
