10
Lattice="16.290000149 0.0 0.0 0.0 16.290000149 0.0 0.0 0.0 29.1751946751" Properties=species:S:1:pos:R:3:initial_magmoms:R:1 pbc="T T T"
Si      -1.31253418      -1.35993808      -1.34476350       0.00000000
Si       1.31703022      -1.39129633       1.34162133       0.00000000
Si      -1.41867982       1.33089301       1.30176801       0.00000000
Si       1.30878748       1.28953270      -1.47020808       0.00000000
Si      -0.04507443       2.65722482       2.66538744       0.00000000
Si       2.69565293      -0.02751381       2.64633603       0.00000000
Si       2.68110596       2.69565293      -0.15827543       0.00000000
Si       2.64440459      -2.74983348      -0.02447799       0.00000000
Si      -2.77009824      -0.04494411       2.64817407       0.00000000
Si      -2.76996792       2.64981287      -0.10631441       0.00000000
