10
Lattice="16.290000149 0.0 0.0 0.0 16.290000149 0.0 0.0 0.0 29.1751946751" Properties=species:S:1:pos:R:3:initial_magmoms:R:1 pbc="T T T"
Si       1.37862271       1.36378252       1.30471471       0.00000000
Si      -1.31703022       1.39129633      -1.34162133       0.00000000
Si       1.32737437      -1.35853714      -1.36609932       0.00000000
Si      -1.37057545      -1.35847198       1.33750762       0.00000000
Si      -2.62956440       0.03135825      -2.68638482       0.00000000
Si      -0.00664632       2.67812489       2.66296589       0.00000000
Si       2.73802323       0.04644279      -2.62369900       0.00000000
Si       2.70796817      -0.00296478       2.68032513       0.00000000
Si      -0.09257607      -2.78811498      -2.60074104       0.00000000
Si      -0.00814500      -2.72463284       2.67265206       0.00000000
