10
Lattice="16.290000149 0.0 0.0 0.0 16.290000149 0.0 0.0 0.0 29.1751946751" Properties=species:S:1:pos:R:3:initial_magmoms:R:1 pbc="T T T"
Si       1.82073332      -0.88686019       1.14608917       0.00000000
Si      -0.87338836       1.78489532       1.28204558       0.00000000
Si       1.11153187       1.42871446      -1.56285683       0.00000000
Si      -1.01012662      -2.15176241      -0.39255224       0.00000000
H       -1.91528048      -0.59274424      -1.89618343       0.00000000
Si       2.58970277       2.44099136      -0.09161011       0.00000000
Si      -0.04315221      -2.55781836      -2.54778223       0.00000000
Si      -1.95348053       0.61972048       2.98972807       0.00000000
Si       0.99655705       3.25114194       1.43028474       0.00000000
H        3.20122938      -0.62349976      -1.76186083       0.00000000
