10
Lattice="16.290000149 0.0 0.0 0.0 16.290000149 0.0 0.0 0.0 29.1751946751" Properties=species:S:1:pos:R:3:initial_magmoms:R:1 pbc="T T T"
Si       1.33995025       1.32774904      -1.37876135       0.00000000
Si      -1.44184420       1.36671472       1.23446084       0.00000000
Si       1.34224714      -1.35102745       1.37800279       0.00000000
Si      -1.38324907      -1.34835589      -1.34185473       0.00000000
Si      -0.16109181      -2.70928766       2.53952565       0.00000000
Si       2.69970914       2.63534735       0.00948194       0.00000000
Si      -0.01389537      -2.73507474      -2.65362983       0.00000000
Si      -2.82093933       0.05038497       2.58690616       0.00000000
Si       2.71419095      -0.02695995      -2.70130210       0.00000000
Si      -0.01482390       2.66879072      -2.75279632       0.00000000
