10
Lattice="16.290000149 0.0 0.0 0.0 16.290000149 0.0 0.0 0.0 29.1751946751" Properties=species:S:1:pos:R:3:initial_magmoms:R:1 pbc="T T T"
Si      -1.37862271      -1.36378252      -1.30471471       0.00000000
Si      -1.38526903       1.31434237       1.35825119       0.00000000
Si       1.32934546      -1.36674730       1.37561043       0.00000000
Si       1.32481684       1.38689803      -1.38267083       0.00000000
Si      -2.69565293       0.02751381      -2.64633603       0.00000000
Si      -0.01482390       2.67589316       2.68557667       0.00000000
Si      -0.05124834      -2.72231966      -2.67081402       0.00000000
Si       2.68802921      -0.00140094       2.70658281       0.00000000
Si       2.75001267       0.02674818      -2.65266705       0.00000000
Si       2.69501762      -2.71425611       0.02619932       0.00000000
