10
Lattice="16.290000149 0.0 0.0 0.0 16.290000149 0.0 0.0 0.0 29.1751946751" Properties=species:S:1:pos:R:3:initial_magmoms:R:1 pbc="T T T"
Si       1.35474646      -1.38825010      -1.32954280       0.00000000
Si       1.36438851       1.32978529       1.37870300       0.00000000
Si      -1.34035750      -1.35334063       1.38550082       0.00000000
Si      -1.34799751       1.38442195      -1.36236489       0.00000000
Si      -2.69169446       2.68736132       0.06138461       0.00000000
Si       2.71169858       2.67731039       0.01067812       0.00000000
Si      -2.69667920      -2.70293456       0.03101323       0.00000000
Si       2.70000236      -0.05958882      -2.71140547       0.00000000
Si      -2.69467553       0.05134608      -2.75086492       0.00000000
Si       0.03447819       2.67861359       2.77056401       0.00000000
