10
Lattice="16.290000149 0.0 0.0 0.0 16.290000149 0.0 0.0 0.0 29.1751946751" Properties=species:S:1:pos:R:3:initial_magmoms:R:1 pbc="T T T"
Si       1.36216981      -1.35070165      -1.35151172       0.00000000
Si       1.37521810       1.36244674       1.32933857       0.00000000
Si      -1.35381304       1.35334063      -1.36726632       0.00000000
Si      -1.35286822      -1.34566804       1.37701084       0.00000000
Si       0.00097740       2.71715573       2.65187932       0.00000000
Si      -2.71303436      -2.69156414       0.00997792       0.00000000
Si       2.68467347      -2.72021825       0.03737342       0.00000000
Si       0.00190593      -2.69374700      -2.71405166       0.00000000
Si      -2.72222192       0.04105080       2.68878594       0.00000000
Si       2.71801910       0.02792106      -2.70637858       0.00000000
