10
Lattice="16.290000149 0.0 0.0 0.0 16.290000149 0.0 0.0 0.0 29.1751946751" Properties=species:S:1:pos:R:3:initial_magmoms:R:1 pbc="T T T"
Si       1.34731007       1.34752510      -1.36802488       0.00000000
Si       1.35035630      -1.35927019       1.35962242       0.00000000
Si      -1.32991032       1.34882830       1.39186101       0.00000000
Si      -1.36438851      -1.32978529      -1.37870300       0.00000000
Si       2.67786100       2.69319314       0.04662196       0.00000000
Si      -2.70474601      -2.68312592       0.00679782       0.00000000
Si      -2.69814856       2.70482420       0.05006463       0.00000000
Si       2.68831918       0.00421911       2.72557586       0.00000000
Si       2.69858188      -0.02184489      -2.72703462       0.00000000
Si      -0.00964205      -2.71803539      -2.70824580       0.00000000
