10
Lattice="16.290000149 0.0 0.0 0.0 16.290000149 0.0 0.0 0.0 29.1751946751" Properties=species:S:1:pos:R:3:initial_magmoms:R:1 pbc="T T T"
Si       1.34640109       1.33006059      -1.34649067       0.00000000
Si      -1.35610993       1.39510656       1.28925185       0.00000000
Si       1.37033110      -1.36057502       1.31361314       0.00000000
Si      -1.30098457      -1.32737600      -1.42542416       0.00000000
Si      -2.68050323       0.01122055       2.65103324       0.00000000
Si      -0.01677870      -2.71987779       2.61791939       0.00000000
Si       0.03679911       2.73813563       2.61832785       0.00000000
Si       2.72595233       0.01114725       2.65161674       0.00000000
Si      -2.57997927       0.04499135      -2.81302851       0.00000000
Si      -2.65002139       2.74841462      -0.14237495       0.00000000
