10
Lattice="16.290000149 0.0 0.0 0.0 16.290000149 0.0 0.0 0.0 29.1751946751" Properties=species:S:1:pos:R:3:initial_magmoms:R:1 pbc="T T T"
Si       1.35610993      -1.39510656      -1.28925185       0.00000000
Si       1.39290904       1.34302906       1.32907599       0.00000000
Si      -1.32439330      -1.38388601       1.36178139       0.00000000
Si      -1.29391145       1.35330805      -1.43162680       0.00000000
Si      -2.64447220       2.67972131      -0.02479892       0.00000000
Si       2.70251102      -0.06504597      -2.63574252       0.00000000
Si       0.03398094       2.69838965       2.68271750       0.00000000
Si      -2.65574260      -0.04298931      -2.74921652       0.00000000
Si      -2.70464501      -0.03663621       2.70296509       0.00000000
Si      -2.63838967      -2.76794796      -0.00175051       0.00000000
