10
Lattice="16.290000149 0.0 0.0 0.0 16.290000149 0.0 0.0 0.0 29.1751946751" Properties=species:S:1:pos:R:3:initial_magmoms:R:1 pbc="T T T"
H        2.00555966      -0.08110791      -1.05911792       0.00000000
Si       1.03653271      -1.32994819       1.61049992       0.00000000
Si       0.76227427       1.85474684      -1.28297919       0.00000000
Si      -0.76224169      -2.03139560      -1.02329078       0.00000000
Si      -1.06373701       1.12187602       1.85810980       0.00000000
H       -1.20831076       1.30095199      -2.39685894       0.00000000
H       -3.00597744       0.07465707      -1.31402159       0.00000000
H       -1.85376944       1.73327231      -2.43758752       0.00000000
H        2.32860665      -0.78327208       2.54118863       0.00000000
Si      -1.01652859       3.42792102      -0.65670446       0.00000000
