10
Lattice="16.290000149 0.0 0.0 0.0 16.290000149 0.0 0.0 0.0 29.1751946751" Properties=species:S:1:pos:R:3:initial_magmoms:R:1 pbc="T T T"
Si       1.31722570      -1.44267499       1.27437250       0.00000000
Si      -1.34654770      -1.36221868      -1.34728131       0.00000000
Si       1.39347919       1.35957970      -1.30818655       0.00000000
Si      -1.28474344       1.36826227       1.41654323       0.00000000
Si       2.73893547      -0.04702923       2.44689440       0.00000000
Si       0.02303406       2.70151733      -2.66098198       0.00000000
Si      -2.66157425       2.71935488       0.07337561       0.00000000
Si      -2.71515206      -0.00364896      -2.67101825       0.00000000
Si       0.03056004      -2.72626184      -2.67702834       0.00000000
Si      -0.05963769      -2.77654908       2.62495062       0.00000000
