10
Lattice="16.290000149 0.0 0.0 0.0 16.290000149 0.0 0.0 0.0 29.1751946751" Properties=species:S:1:pos:R:3:initial_magmoms:R:1 pbc="T T T"
Si      -1.25389018       1.34235140       1.48489400       0.00000000
Si       1.35485560      -1.38705360       1.39763770       0.00000000
Si      -1.44503704      -1.44279880      -1.27212601       0.00000000
Si       1.52037829       1.37331869      -1.28350434       0.00000000
H       -0.63985492       1.16386187      -2.72108288       0.00000000
Si      -0.04401558      -2.62411703      -2.74833251       0.00000000
Si      -2.59055148      -0.06486026       2.83677712       0.00000000
Si      -2.88615145       2.53235220       0.27672672       0.00000000
Si       0.13318704       2.61748374       2.86234626       0.00000000
Si       3.72316098       0.99110642      -0.47949432       0.00000000
