10
Lattice="16.290000149 0.0 0.0 0.0 16.290000149 0.0 0.0 0.0 29.1751946751" Properties=species:S:1:pos:R:3:initial_magmoms:R:1 pbc="T T T"
Si       0.12520494      -2.30391101      -0.23669835       0.00000000
Si      -1.74571787      -0.32398530       1.49336151       0.00000000
Si      -0.98241733       0.85945552      -1.98741426       0.00000000
Si       1.83405854       1.18682425       1.00243051       0.00000000
H       -0.41910912       2.67004505       1.50013016       0.00000000
Si      -2.50400108       2.17536662      -0.79120210       0.00000000
Si       1.73625338      -2.24114564      -2.02449593       0.00000000
Si      -1.06473070       3.50577093       0.41705941       0.00000000
Si       0.41485743      -3.17661519       2.00561958       0.00000000
Si      -3.66349071       0.73572645       0.71420877       0.00000000
