10
Lattice="16.290000149 0.0 0.0 0.0 16.290000149 0.0 0.0 0.0 29.1751946751" Properties=species:S:1:pos:R:3:initial_magmoms:R:1 pbc="T T T"
Si      -1.34574949       1.36078353      -1.35574212       0.00000000
Si       1.35692443       1.36267806       1.34987791       0.00000000
Si      -1.37506172      -1.34894233       1.35069481       0.00000000
Si       1.31797504      -1.37031481      -1.38885597       0.00000000
Si      -2.65974586      -0.02327841      -2.71927402       0.00000000
Si       0.01058850      -2.69812901       2.68420544       0.00000000
Si       2.70508484      -0.01101204      -2.69316222       0.00000000
Si      -0.02713914       2.71707428       2.68440966       0.00000000
Si      -2.68979627      -2.71467965      -0.04361692       0.00000000
Si       2.69928560      -2.71616204      -0.05187350       0.00000000
