10
Lattice="10.86 0.0 0.0 0.0 10.86 0.0 0.0 0.0 10.86" Properties=species:S:1:pos:R:3:initial_magmoms:R:1 pbc="T T T"
Si       1.35750000      -1.35750000      -1.35750000       0.00000000
Si       1.35750000       1.35750000       1.35750000       0.00000000
Si      -1.35750000      -1.35750000       1.35750000       0.00000000
Si      -1.35750000       1.35750000      -1.35750000       0.00000000
Si      -2.64181446       2.53206330       0.10587414       0.00000000
Si      -2.58980592       0.00539742      -2.64127146       0.00000000
Si       2.61665184       2.74224774       0.05622222       0.00000000
Si      -2.71500000       0.00000000       2.71500000       0.00000000
Si       0.00000000      -2.71500000      -2.71500000       0.00000000
Si       0.00000000       2.71500000       2.71500000       0.00000000
