10
Lattice="10.86 0.0 0.0 0.0 10.86 0.0 0.0 0.0 10.86" Properties=species:S:1:pos:R:3:initial_magmoms:R:1 pbc="T T T"
Si       1.35662034      -1.45063536      -1.22140248       0.00000000
Si       1.35662034       1.26436464       1.49359752       0.00000000
Si      -1.35837966      -1.45063536       1.49359752       0.00000000
Si      -2.01951474      -0.34869288      -1.69070652       0.00000000
Si       2.78730588       2.43892794       0.24197166       0.00000000
Si       2.83931442      -0.08773794      -2.50517394       0.00000000
Si      -0.00087966      -2.80813536      -2.57890248       0.00000000
Si      -2.81422782       2.64911238       0.19231974       0.00000000
Si      -0.00087966       2.62186464       2.85109752       0.00000000
Si       2.71412034      -2.80813536       0.13609752       0.00000000
