10
Lattice="10.86 0.0 0.0 0.0 10.86 0.0 0.0 0.0 10.86" Properties=species:S:1:pos:R:3:initial_magmoms:R:1 pbc="T T T"
Si      -1.28452080       1.19787972      -1.36086660       0.00000000
Si      -1.28452080      -1.51712028       1.35413340       0.00000000
Si       1.43047920      -1.51712028      -1.36086660       0.00000000
Si       1.74297570       1.19595750       1.36922880       0.00000000
Si      -2.64202080       2.55537972      -0.00336660       0.00000000
Si       0.07297920       2.55537972      -2.71836660       0.00000000
Si       0.04307076       2.60618280       2.71038450       0.00000000
Si      -2.64202080      -0.15962028       2.71163340       0.00000000
Si      -2.64202080      -0.15962028      -2.71836660       0.00000000
Si       2.78797920      -0.15962028      -2.71836660       0.00000000
