10
Lattice="10.86 0.0 0.0 0.0 10.86 0.0 0.0 0.0 10.86" Properties=species:S:1:pos:R:3:initial_magmoms:R:1 pbc="T T T"
Si       1.35750000       1.35750000       1.35750000       0.00000000
Si      -1.35750000      -1.35750000       1.35750000       0.00000000
Si      -1.35750000       1.35750000      -1.35750000       0.00000000
Si       1.35750000      -1.35750000      -1.35750000       0.00000000
Si       0.13065666       2.60481444      -2.66473992       0.00000000
Si       2.57423268       0.05959968      -2.75180454       0.00000000
Si       2.61495768      -0.05264928       2.74956738       0.00000000
Si      -2.50872516       0.20222406       2.88125574       0.00000000
Si      -0.00219372       2.71881186       2.70434634       0.00000000
Si      -0.06353100      -2.77088556       2.65644288       0.00000000
