10
Lattice="10.86 0.0 0.0 0.0 10.86 0.0 0.0 0.0 10.86" Properties=species:S:1:pos:R:3:initial_magmoms:R:1 pbc="T T T"
Si      -1.29396900       1.41338556      -1.29894288       0.00000000
Si      -1.29396900      -1.30161444       1.41605712       0.00000000
Si       1.42103100      -1.30161444      -1.29894288       0.00000000
Si      -2.65146900       0.05588556      -2.65644288       0.00000000
Si      -2.65146900      -2.65911444       0.05855712       0.00000000
Si       0.06353100      -2.65911444      -2.65644288       0.00000000
Si      -2.65712706      -0.01436778       2.67823890       0.00000000
Si       2.67848868       2.71823628       0.09312450       0.00000000
Si       0.06353100       2.77088556      -2.65644288       0.00000000
Si       0.06353100      -2.65911444       2.77355712       0.00000000
