10
Lattice="10.86 0.0 0.0 0.0 10.86 0.0 0.0 0.0 10.86" Properties=species:S:1:pos:R:3:initial_magmoms:R:1 pbc="T T T"
Si       1.11927504      -1.46591538      -1.11347580       0.00000000
Si       1.11927504       1.24908462       1.60152420       0.00000000
Si      -2.34131826       0.28157808      -0.01810362       0.00000000
Si      -1.59572496      -1.46591538       1.60152420       0.00000000
Si      -0.59023014       2.34444594      -2.21610246       0.00000000
Si       2.47677504      -0.10841538      -2.47097580       0.00000000
Si       2.47677504       2.60658462       0.24402420       0.00000000
Si      -0.23822496      -2.82341538      -2.47097580       0.00000000
Si       2.47677504      -2.82341538       0.24402420       0.00000000
Si       2.47677504      -0.10841538       2.95902420       0.00000000
