10
Lattice="10.86 0.0 0.0 0.0 10.86 0.0 0.0 0.0 10.86" Properties=species:S:1:pos:R:3:initial_magmoms:R:1 pbc="T T T"
Si      -1.48110852       1.32972012      -1.10832816       0.00000000
Si       1.23389148       1.32972012       1.60667184       0.00000000
Si      -1.48110852      -1.38527988       1.60667184       0.00000000
Si       1.62543792      -1.73512392      -1.08661902       0.00000000
Si       2.63319162      -0.07786620      -2.45156898       0.00000000
Si      -0.12360852       2.68722012      -2.46582816       0.00000000
Si      -0.01158762      -2.74243236      -2.45773746       0.00000000
Si       2.59139148       2.68722012       0.24917184       0.00000000
Si      -2.83860852      -0.02777988      -2.46582816       0.00000000
Si      -2.83860852       2.68722012       0.24917184       0.00000000
