10
Lattice="10.86 0.0 0.0 0.0 10.86 0.0 0.0 0.0 10.86" Properties=species:S:1:pos:R:3:initial_magmoms:R:1 pbc="T T T"
Si       1.20561204       1.35545832       1.10814354       0.00000000
Si      -1.50938796      -1.35954168       1.10814354       0.00000000
Si       1.20561204      -1.35954168      -1.60685646       0.00000000
Si      -1.44622620       1.45619568      -1.38122910       0.00000000
Si       2.56311204      -0.00204168       2.46564354       0.00000000
Si      -0.15188796       2.71295832       2.46564354       0.00000000
Si      -0.15188796      -2.71704168       2.46564354       0.00000000
Si       2.56311204      -2.71704168      -0.24935646       0.00000000
Si       2.53547334       2.76364194      -0.29439288       0.00000000
Si      -2.86688796      -0.00204168       2.46564354       0.00000000
