10
Lattice="10.86 0.0 0.0 0.0 10.86 0.0 0.0 0.0 10.86" Properties=species:S:1:pos:R:3:initial_magmoms:R:1 pbc="T T T"
Si       1.06733166       1.30213572       1.27096752       0.00000000
Si       1.13049342      -1.31212692      -1.21840512       0.00000000
Si      -1.64766834      -1.41286428       1.27096752       0.00000000
Si      -1.64766834       1.30213572      -1.44403248       0.00000000
Si       2.33421582       2.43406266      -0.13747674       0.00000000
Si       2.42483166      -0.05536428       2.62846752       0.00000000
Si      -0.29016834       2.65963572       2.62846752       0.00000000
Si       2.57671962      -2.76832260       0.16282398       0.00000000
Si      -0.28727958      -2.81676906      -2.56628316       0.00000000
Si      -0.29016834      -2.77036428       2.62846752       0.00000000
