10
Lattice="10.86 0.0 0.0 0.0 10.86 0.0 0.0 0.0 10.86" Properties=species:S:1:pos:R:3:initial_magmoms:R:1 pbc="T T T"
Si      -1.54135980       1.24931268       0.96895092       0.00000000
Si       0.77302566       1.25439516      -1.77045150       0.00000000
Si      -1.42290978      -1.21026012      -1.53109710       0.00000000
Si      -0.28039434      -1.76634642       1.78580754       0.00000000
Si      -0.21447414       2.77720608       2.47897962       0.00000000
Si       2.50052586       2.77720608      -0.23602038       0.00000000
Si      -2.92947414       0.06220608       2.47897962       0.00000000
Si       2.50052586       0.06220608      -2.95102038       0.00000000
Si      -2.92947414      -2.65279392      -0.23602038       0.00000000
Si      -0.21447414      -2.65279392      -2.95102038       0.00000000
