10
Lattice="10.86 0.0 0.0 0.0 10.86 0.0 0.0 0.0 10.86" Properties=species:S:1:pos:R:3:initial_magmoms:R:1 pbc="T T T"
Si       1.59988434       1.17137046       1.10055240       0.00000000
Si      -1.11511566       1.17137046      -1.61444760       0.00000000
Si       1.59988434      -1.54362954      -1.61444760       0.00000000
Si      -2.44268550      -0.10929504       2.37481050       0.00000000
Si       0.24238434       2.52887046       2.45805240       0.00000000
Si      -2.47261566       2.52887046      -0.25694760       0.00000000
Si       2.95738434      -0.18612954       2.45805240       0.00000000
Si       2.95738434       2.52887046      -0.25694760       0.00000000
Si       0.24238434       2.52887046      -2.97194760       0.00000000
Si       0.39066678      -3.03176448       2.53728696       0.00000000
