10
Lattice="10.86 0.0 0.0 0.0 10.86 0.0 0.0 0.0 10.86" Properties=species:S:1:pos:R:3:initial_magmoms:R:1 pbc="T T T"
Si      -1.46582850      -0.79798194      -1.44452118       0.00000000
Si      -1.49721390       1.53523476       1.01958024       0.00000000
Si       0.98121186       1.55827968      -1.67680572       0.00000000
Si      -0.15187710      -2.34666138       2.24515296       0.00000000
Si      -2.89223520      -2.36745828      -0.18779112       0.00000000
Si      -0.17723520      -2.36745828      -2.90279112       0.00000000
Si      -2.89223520       0.34754172       2.52720888       0.00000000
Si       2.53776480       0.34754172      -2.90279112       0.00000000
Si      -0.17723520       3.06254172       2.52720888       0.00000000
Si       2.53776480       3.06254172      -0.18779112       0.00000000
