10
Lattice="10.86 0.0 0.0 0.0 10.86 0.0 0.0 0.0 10.86" Properties=species:S:1:pos:R:3:initial_magmoms:R:1 pbc="T T T"
Si      -1.39502130      -1.18769304       1.50762864       0.00000000
Si       1.49721390      -1.53523476      -1.01958024       0.00000000
Si      -1.39502130       1.52730696      -1.20737136       0.00000000
Si       1.31997870       1.52730696       1.50762864       0.00000000
Si       0.03138540      -2.33321670      -2.46410142       0.00000000
Si       2.47842576       0.02304492      -2.69638596       0.00000000
Si      -2.75252130      -2.54519304       0.15012864       0.00000000
Si      -2.75252130       0.16980696      -2.56487136       0.00000000
Si       0.19506732      -2.41469928       3.00260538       0.00000000
Si      -0.03752130       2.88480696      -2.56487136       0.00000000
