10
Lattice="16.28999089631971 0.0 0.0 0.0 16.28999089631971 0.0 0.0 0.0 34.24959146834617" Properties=species:S:1:pos:R:3:initial_magmoms:R:1 pbc="T T T"
Si      -0.18663453      -0.83021985      -2.13286025       0.00000000
Si       0.05336604      -2.25851076       0.61597925       0.00000000
Si      -2.26873485       0.58437117      -0.18525614       0.00000000
Si       1.99301634       1.77534936       0.34232486       0.00000000
Si       0.88115868       1.82858508       2.45949879       0.00000000
Si       1.43918892      -1.89095949       2.49823510       0.00000000
Si      -0.92531761       0.95063553      -3.31834202       0.00000000
Si      -2.12486760       2.29230927      -1.86430905       0.00000000
Si      -2.90363453       1.09162548       1.99336159       0.00000000
Si       0.48145095      -0.13302414       3.77310835       0.00000000
