10
Lattice="16.28999089631971 0.0 0.0 0.0 16.28999089631971 0.0 0.0 0.0 34.24959146834617" Properties=species:S:1:pos:R:3:initial_magmoms:R:1 pbc="T T T"
Si       2.03499567       0.82753200      -0.65115360       0.00000000
Si       0.65158371      -1.71344736       1.45488921       0.00000000
Si      -0.95907375       1.90913817       0.98066910       0.00000000
Si      -0.73860489      -0.66375234      -2.14464212       0.00000000
Si      -2.74880392      -1.55457099      -1.35652433       0.00000000
Si       2.49051294      -2.60739369       0.07325992       0.00000000
Si       1.48004424       2.35837565      -2.33232998       0.00000000
Si       3.15995049      -0.97712307      -1.59911432       0.00000000
Si      -0.33889716       1.29785688      -3.45825168       0.00000000
Si      -1.16155845      -3.26803464       1.49848896       0.00000000
