10
Lattice="16.28999089631971 0.0 0.0 0.0 16.28999089631971 0.0 0.0 0.0 34.24959146834617" Properties=species:S:1:pos:R:3:initial_magmoms:R:1 pbc="T T T"
Si      -1.35685926       1.35678270       1.35734632       0.00000000
Si      -1.35845568      -1.35727657      -1.35666133       0.00000000
Si       1.35744570      -1.35774955       1.35748332       0.00000000
Si       1.35972630       1.35743430      -1.35758607       0.00000000
Si       0.00084708      -2.71321583       2.71421314       0.00000000
Si      -2.71427238       2.71444017      -0.00085624       0.00000000
Si       2.71494027       0.00099206       2.71393914       0.00000000
Si      -0.00003258       2.71387002       2.71524063       0.00000000
Si      -2.71480995      -2.71504031      -0.00017125       0.00000000
Si       2.71510317      -2.71490999      -0.00071924       0.00000000
