10
Lattice="16.28999089631971 0.0 0.0 0.0 16.28999089631971 0.0 0.0 0.0 34.24959146834617" Properties=species:S:1:pos:R:3:initial_magmoms:R:1 pbc="T T T"
Si      -2.08976265      -0.38929842       1.06451215       0.00000000
Si       0.07962552      -2.39557223       0.39472676       0.00000000
Si       1.90892736       1.31014931       0.79935166       0.00000000
Si       0.15762204       0.64289137      -2.36031192       0.00000000
Si      -1.12914135      -0.85470113       3.14243640       0.00000000
Si      -0.06079428       3.03770381      -1.90674432       0.00000000
Si      -2.35729332      -2.81435555       0.38945232       0.00000000
Si       2.41836453       0.08514131      -2.85292406       0.00000000
Si      -2.04762042       3.18695279      -0.48298801       0.00000000
Si       1.10829015      -3.33747632      -1.53907475       0.00000000
