10
Lattice="16.28999089631971 0.0 0.0 0.0 16.28999089631971 0.0 0.0 0.0 34.24959146834617" Properties=species:S:1:pos:R:3:initial_magmoms:R:1 pbc="T T T"
Si       0.96062130      -0.46540271       2.07792426       0.00000000
Si      -1.56035394       1.74245333      -0.37332076       0.00000000
Si       2.08976265       0.38929842      -1.06451215       0.00000000
Si      -0.26753067      -2.42505713      -0.67505983       0.00000000
Si       2.16938817      -2.00627381      -0.66978539       0.00000000
Si      -0.78174081      -1.60809734       3.21755368       0.00000000
Si       0.04214223       3.57625121      -1.54750016       0.00000000
Si      -1.22631120      -2.30553740      -2.91721058       0.00000000
Si      -2.55669921      -2.46192140       1.75748452       0.00000000
Si       2.78073558      -2.28696680       1.77536282       0.00000000
