10
Lattice="16.28999089631971 0.0 0.0 0.0 16.28999089631971 0.0 0.0 0.0 34.24959146834617" Properties=species:S:1:pos:R:3:initial_magmoms:R:1 pbc="T T T"
Si      -0.43199451      -2.07150156       0.92655472       0.00000000
Si      -0.16428465       2.10359286       1.05886096       0.00000000
Si       2.37996900       0.19696239      -0.04490124       0.00000000
Si      -0.77768460      -0.20606850      -2.35274275       0.00000000
Si       2.06231400       1.74734685       1.68374511       0.00000000
Si       0.16829199      -3.14493111      -1.10944764       0.00000000
Si      -2.56868865      -1.65437982       1.76046423       0.00000000
Si       2.88702783       0.63889380      -2.36027767       0.00000000
Si       0.00917127       3.72852036      -0.68290299       0.00000000
Si       1.01923272       0.48619134      -3.78557521       0.00000000
