10
Lattice="16.28999089631971 0.0 0.0 0.0 16.28999089631971 0.0 0.0 0.0 34.24959146834617" Properties=species:S:1:pos:R:3:initial_magmoms:R:1 pbc="T T T"
Si       1.33136541      -1.85394861      -0.69194488       0.00000000
Si       0.42831297       1.19179269       2.02836469       0.00000000
Si      -2.24824806      -0.80365086       0.26502349       0.00000000
Si       0.12544929       1.73237634      -1.65959913       0.00000000
Si      -2.17412856       2.43467082      -1.53975974       0.00000000
Si      -3.23648091       0.27282492      -1.57705757       0.00000000
Si       0.09749565      -2.80642491      -2.48813146       0.00000000
Si      -3.12295590       0.05755257       2.26961895       0.00000000
Si      -0.33617673       3.47077998       1.80536547       0.00000000
Si       0.53149383       0.81585207      -3.80465224       0.00000000
