10
Lattice="16.28999089631971 0.0 0.0 0.0 16.28999089631971 0.0 0.0 0.0 34.24959146834617" Properties=species:S:1:pos:R:3:initial_magmoms:R:1 pbc="T T T"
Si       0.11052765      -1.97258054       1.21274446       0.00000000
Si      -0.35262963       1.68357150       1.62391104       0.00000000
Si       2.04846750       0.50290488      -1.07807499       0.00000000
Si      -1.88975892      -0.18937125      -1.48472062       0.00000000
Si      -1.47826863       1.95945894      -2.28174331       0.00000000
Si       0.89406036       1.90604403      -2.64520018       0.00000000
Si      -2.16887829      -2.27402603       1.61500614       0.00000000
Si       1.26068310       1.01364525       3.21007900       0.00000000
Si       2.54964564      -1.52334306      -2.10025462       0.00000000
Si       1.30334661      -1.36881938       3.13301738       0.00000000
