10
Lattice="16.28999089631971 0.0 0.0 0.0 16.28999089631971 0.0 0.0 0.0 34.24959146834617" Properties=species:S:1:pos:R:3:initial_magmoms:R:1 pbc="T T T"
Si       2.22659865      -0.35624601       0.62488415       0.00000000
Si      -1.41301089       0.22035483       1.85776738       0.00000000
Si       0.16428465      -2.10359286      -1.05886096       0.00000000
Si       0.17345592       1.62492750      -1.74176395       0.00000000
Si       2.54425365      -1.90663047      -1.10376220       0.00000000
Si      -3.39662790       0.46501434       0.61265703       0.00000000
Si      -1.11804786       3.37839939      -0.95546139       0.00000000
Si       2.40995889       2.41926048      -1.58383899       0.00000000
Si      -1.02284910       2.33375427       2.85816425       0.00000000
Si       3.59293869       1.39768200       0.15984293       0.00000000
