10
Lattice="16.28999089631971 0.0 0.0 0.0 16.28999089631971 0.0 0.0 0.0 34.24959146834617" Properties=species:S:1:pos:R:3:initial_magmoms:R:1 pbc="T T T"
Si      -1.35366642      -1.10908836       1.62856898       0.00000000
Si       2.17852686      -0.88234785       0.55689867       0.00000000
Si      -0.30511170       2.47296861      -0.18111194       0.00000000
Si      -0.79405605      -0.87604362      -2.20427069       0.00000000
Si       2.02834935       2.81554731      -0.13943016       0.00000000
Si       1.70191404      -3.15910341      -0.07319142       0.00000000
Si      -2.64660372       0.68818734      -2.38182067       0.00000000
Si       2.64862368       1.29121056      -2.12114688       0.00000000
Si       1.01690325      -0.09505215      -3.53706004       0.00000000
Si      -3.53951563      -0.39283335       1.58633921       0.00000000
