10
Lattice="16.28999089631971 0.0 0.0 0.0 16.28999089631971 0.0 0.0 0.0 34.24959146834617" Properties=species:S:1:pos:R:3:initial_magmoms:R:1 pbc="T T T"
Si       1.19521359       1.42814430      -1.46499284       0.00000000
Si      -0.95259033       0.87977403       1.98993663       0.00000000
Si      -2.05356627       0.00522909      -1.20373681       0.00000000
Si       0.76448970      -2.27898729       0.22299921       0.00000000
Si       2.18217582      -0.15327261      -2.86700065       0.00000000
Si      -0.68431032       3.34508634       1.41827638       0.00000000
Si      -3.52582389      -1.28120850      -0.00780891       0.00000000
Si       0.47563542      -0.12201210       3.81746160       0.00000000
Si       0.46162602      -1.73840364      -3.46496461       0.00000000
Si      -1.64309085       3.46460607      -0.82387438       0.00000000
