10
Lattice="16.28999089631971 0.0 0.0 0.0 16.28999089631971 0.0 0.0 0.0 34.24959146834617" Properties=species:S:1:pos:R:3:initial_magmoms:R:1 pbc="T T T"
Si      -1.12495482       1.80465507       0.94796072       0.00000000
Si      -0.76463631      -0.58562550      -2.14125141       0.00000000
Si      -0.66943755      -1.63027062       1.67237424       0.00000000
Si       2.16599985       1.09867905      -0.27365439       0.00000000
Si       0.27388377       2.20079529       2.78630857       0.00000000
Si      -3.15995049       0.97712307       1.59911432       0.00000000
Si      -0.26207352       1.33991766      -3.42465281       0.00000000
Si       1.17923310      -1.78685010       3.07571778       0.00000000
Si      -2.94081741      -1.44456462      -1.82040105       0.00000000
Si       0.52686747      -2.33909739      -2.92755397       0.00000000
