10
Lattice="16.28999089631971 0.0 0.0 0.0 16.28999089631971 0.0 0.0 0.0 34.24959146834617" Properties=species:S:1:pos:R:3:initial_magmoms:R:1 pbc="T T T"
Si       1.35029439       1.35840681       1.39240764       0.00000000
Si      -1.36805049      -1.35426426       1.39439412       0.00000000
Si      -1.19832498       1.51866783      -1.48823120       0.00000000
Si       1.39569462      -1.45475890      -1.57749597       0.00000000
Si      -2.69685837      -2.70439154       0.00965154       0.00000000
Si       2.70716994      -2.70246078       0.01922773       0.00000000
Si       2.70247842       2.73043206       0.01686451       0.00000000
Si      -2.70596448       2.73755079       0.01508695       0.00000000
Si      -0.00812871      -2.70780251       2.75495990       0.00000000
Si       2.70791928       0.00537570       2.75537090       0.00000000
