10
Lattice="16.28999089631971 0.0 0.0 0.0 16.28999089631971 0.0 0.0 0.0 34.24959146834617" Properties=species:S:1:pos:R:3:initial_magmoms:R:1 pbc="T T T"
Si      -1.35474156       1.35155524       1.35964104       0.00000000
Si       1.35744570       1.35678433      -1.35635308       0.00000000
Si      -1.35749457      -1.35874161      -1.35645583       0.00000000
Si       1.35363384      -1.35729144       1.36429899       0.00000000
Si      -2.71497285       2.71287796       0.00130149       0.00000000
Si      -2.71409319      -2.71420789       0.00027400       0.00000000
Si      -0.00016290       2.71436035      -2.71397339       0.00000000
Si      -2.71494027      -0.00099206      -2.71393914       0.00000000
Si       2.71480995       2.71471873       0.00054799       0.00000000
Si       2.71559187      -0.00144981      -2.71438439       0.00000000
