10
Lattice="16.28999089631971 0.0 0.0 0.0 16.28999089631971 0.0 0.0 0.0 34.24959146834617" Properties=species:S:1:pos:R:3:initial_magmoms:R:1 pbc="T T T"
Si      -0.91005714       2.12740884      -0.01976203       0.00000000
Si      -1.57998339      -1.16516994      -1.29532027       0.00000000
Si       2.08870380       0.17814744      -1.07879423       0.00000000
Si      -0.04505814      -0.51662106       2.41672102       0.00000000
Si       2.99411829       0.73995696       1.19945561       0.00000000
Si       0.05598873       3.16143288       1.84865698       0.00000000
Si       2.76781761      -2.07060398      -1.21288146       0.00000000
Si      -0.89586855      -3.41388620      -0.98827251       0.00000000
Si      -3.65855481      -0.48962853      -0.18645488       0.00000000
Si      -3.28142502       1.78753428       0.21316958       0.00000000
