10
Lattice="16.28999089631971 0.0 0.0 0.0 16.28999089631971 0.0 0.0 0.0 34.24959146834617" Properties=species:S:1:pos:R:3:initial_magmoms:R:1 pbc="T T T"
Si       1.12324437      -1.22673867      -1.62195881       0.00000000
Si      -0.35617433       2.28586493      -0.23224661       0.00000000
Si      -2.29779314      -0.49993033      -0.67201161       0.00000000
Si       1.79675442       0.88095017       1.76289596       0.00000000
Si      -1.05174104      -1.47977124      -2.51347617       0.00000000
Si       1.74845457       3.08371655      -1.05803897       0.00000000
Si      -1.97117864       2.63891810      -1.84824599       0.00000000
Si       2.13079716      -3.16704057      -0.78099387       0.00000000
Si      -1.60509347       3.21630086       1.66785329       0.00000000
Si       3.35710836      -0.86150317       2.13621671       0.00000000
