10
Lattice="16.28999089631971 0.0 0.0 0.0 16.28999089631971 0.0 0.0 0.0 34.24959146834617" Properties=species:S:1:pos:R:3:initial_magmoms:R:1 pbc="T T T"
Si       1.12573674      -1.96799490       0.57094101       0.00000000
Si      -0.31765500       1.55038446       1.72864635       0.00000000
Si      -2.37996900      -0.19696239       0.04490124       0.00000000
Si       0.50705883       0.44193141      -2.31537643       0.00000000
Si       0.15969087      -3.00201894      -1.29747800       0.00000000
Si      -2.54425365       1.90663047       1.10376220       0.00000000
Si       1.04868504       3.30431247       1.26360513       0.00000000
Si      -2.81196351      -2.26846395       0.97145596       0.00000000
Si       0.06967233       0.69776586       3.85404018       0.00000000
Si       1.40339979      -1.87976826      -3.14401151       0.00000000
