10
Lattice="16.28999089631971 0.0 0.0 0.0 16.28999089631971 0.0 0.0 0.0 34.24959146834617" Properties=species:S:1:pos:R:3:initial_magmoms:R:1 pbc="T T T"
Si       0.91005714      -2.12740884       0.01976203       0.00000000
Si       0.96604587       1.03402404       1.86841901       0.00000000
Si      -2.37136788      -0.33987456       0.23293160       0.00000000
Si       1.24370892       1.12225068      -1.84653351       0.00000000
Si      -0.15969087       3.00201894       1.29747800       0.00000000
Si      -0.66992625      -3.29257878      -1.27555825       0.00000000
Si       0.34736796       3.44395035      -1.01789843       0.00000000
Si       3.24866583       0.88239672       1.33104262       0.00000000
Si       0.43228773      -0.50560902       3.57826232       0.00000000
Si       0.86499900      -2.64402990       2.43648305       0.00000000
