10
Lattice="16.28999089631971 0.0 0.0 0.0 16.28999089631971 0.0 0.0 0.0 34.24959146834617" Properties=species:S:1:pos:R:3:initial_magmoms:R:1 pbc="T T T"
Si       2.06073387      -0.46476999      -1.02546759       0.00000000
Si      -1.68932187      -0.76572774      -1.48105591       0.00000000
Si       0.39772035      -0.78042132       2.21023012       0.00000000
Si      -0.11508885       2.40468093       0.16271990       0.00000000
Si       3.29918112       0.27280863       0.86805638       0.00000000
Si      -1.15556373       0.77390532      -3.19089922       0.00000000
Si      -1.73724705      -1.11084768       3.12085877       0.00000000
Si       0.53100513       2.90734146       2.40254168       0.00000000
Si       2.66634720      -2.73981510      -0.96782550       0.00000000
Si       1.12705623       0.62227800      -3.72827561       0.00000000
