10
Lattice="16.28999089631971 0.0 0.0 0.0 16.28999089631971 0.0 0.0 0.0 34.24959146834617" Properties=species:S:1:pos:R:3:initial_magmoms:R:1 pbc="T T T"
Si       0.85734270       2.19150999      -0.12956628       0.00000000
Si      -1.91492208      -0.29634768       1.37577261       0.00000000
Si       1.62434106      -1.44133920       0.97378493       0.00000000
Si      -0.39620538      -0.27938979      -2.37175129       0.00000000
Si       0.05401764      -3.26593812       1.03978393       0.00000000
Si       2.46866805       1.78642656      -1.83485439       0.00000000
Si      -1.70727345       1.72478520      -2.72938572       0.00000000
Si       1.73876202       0.05103657      -3.28237993       0.00000000
Si      -1.85632695       1.64919960       2.89847605       0.00000000
Si      -3.80755944      -0.60626493      -0.03592784       0.00000000
