10
Lattice="16.28999089631971 0.0 0.0 0.0 16.28999089631971 0.0 0.0 0.0 34.24959146834617" Properties=species:S:1:pos:R:3:initial_magmoms:R:1 pbc="T T T"
Si       1.28573712      -1.31126355       1.57857483       0.00000000
Si      -1.91695833      -0.49218606      -1.45253767       0.00000000
Si       2.03458842       0.75064320      -1.23066869       0.00000000
Si      -1.39215969       1.41403716       1.53842401       0.00000000
Si      -2.56416003      -2.44654623       0.11045499       0.00000000
Si       2.61519660      -2.60051931       0.16827519       0.00000000
Si       2.78503614       2.69558775       0.03478733       0.00000000
Si       2.66574447       0.04658940       2.93615404       0.00000000
Si      -2.80088631       2.80792359       0.01024406       0.00000000
Si      -0.04875597      -2.67006132       2.94310671       0.00000000
