10
Lattice="16.28999089631971 0.0 0.0 0.0 16.28999089631971 0.0 0.0 0.0 34.24959146834617" Properties=species:S:1:pos:R:3:initial_magmoms:R:1 pbc="T T T"
Si       1.35820644      -1.35479043       1.36005204       0.00000000
Si      -1.35794647       1.35917244       1.35809981       0.00000000
Si      -1.35507044      -1.36583505      -1.36656289       0.00000000
Si       1.36653063       1.36515087      -1.37908455       0.00000000
Si      -2.61827119       0.03168405      -2.77522882       0.00000000
Si      -2.71461025      -2.71147702       0.00301397       0.00000000
Si       2.71702050       2.71134018       0.00171248       0.00000000
Si       2.71508199      -2.71353281      -0.00150698       0.00000000
Si      -0.00038444      -2.71277859       2.71643937       0.00000000
Si       2.71534263       0.00184077       2.71575437       0.00000000
