10
Lattice="16.28999089631971 0.0 0.0 0.0 16.28999089631971 0.0 0.0 0.0 34.24959146834617" Properties=species:S:1:pos:R:3:initial_magmoms:R:1 pbc="T T T"
Si      -1.36634004      -1.75392801       0.46504121       0.00000000
Si      -1.18297980       1.02157848      -1.74368193       0.00000000
Si       0.33643737       0.97204059       2.10522082       0.00000000
Si       2.07708903      -0.96453090      -0.56124837       0.00000000
Si       2.91411810       1.21259502      -0.04339426       0.00000000
Si       1.62986337       2.89716021      -1.19503741       0.00000000
Si      -0.71995284       3.29310495      -1.34258474       0.00000000
Si      -0.81911007      -0.40122270       3.56445972       0.00000000
Si      -1.04868504      -3.30431247      -1.26360513       0.00000000
Si       2.62598058       1.19312847       2.30417680       0.00000000
