10
Lattice="16.28999089631971 0.0 0.0 0.0 16.28999089631971 0.0 0.0 0.0 34.24959146834617" Properties=species:S:1:pos:R:3:initial_magmoms:R:1 pbc="T T T"
Si       1.18297980      -1.02157848       1.74368193       0.00000000
Si       0.46302696       2.27152647       0.40109719       0.00000000
Si      -2.23650297      -0.79433298      -0.15792495       0.00000000
Si       1.10237688      -0.28660626      -2.28780549       0.00000000
Si       2.81284317       1.87558173       0.54864451       0.00000000
Si      -0.18336024      -2.77550649       2.20872314       0.00000000
Si       2.96644158       1.13064003      -1.75347731       0.00000000
Si      -0.59737059       2.64344346       2.49597462       0.00000000
Si      -3.52800675       0.95913891       0.62837761       0.00000000
Si      -2.40995889      -2.41926048       1.58383899       0.00000000
