10
Lattice="16.28999089631971 0.0 0.0 0.0 16.28999089631971 0.0 0.0 0.0 34.24959146834617" Properties=species:S:1:pos:R:3:initial_magmoms:R:1 pbc="T T T"
Si      -1.35804843      -1.35664749       1.35638733       0.00000000
Si       1.35720135       1.35873261       1.35601058       0.00000000
Si       1.35589815      -1.35651717      -1.36063428       0.00000000
Si      -1.35754344       1.35747828      -1.36594297       0.00000000
Si       2.71469592      -2.71285515      -0.00034250       0.00000000
Si      -0.00060273      -2.71381626       2.71400764       0.00000000
Si       2.71461447       0.00105885       2.71383640       0.00000000
Si      -2.71510317       0.00159642       2.71445289       0.00000000
Si      -2.71604799      -2.71383255       0.00000000       0.00000000
Si      -0.00045612       2.71589305       2.71421314       0.00000000
