10
Lattice="16.28999089631971 0.0 0.0 0.0 16.28999089631971 0.0 0.0 0.0 34.24959146834617" Properties=species:S:1:pos:R:3:initial_magmoms:R:1 pbc="T T T"
Si       0.63972459      -0.66771081      -2.13583997       0.00000000
Si       0.47296386      -2.01622959       1.07054008       0.00000000
Si       1.47838266       1.61719857       0.81349675       0.00000000
Si      -2.18530350       0.27391635       1.03810570       0.00000000
Si       0.31936545      -1.27128789       3.37266191       0.00000000
Si       1.53696150       0.75499263       3.25600773       0.00000000
Si      -1.39110084      -3.43347588       0.53621190       0.00000000
Si       2.79811701      -2.46070224       0.37914319       0.00000000
Si      -1.17612171      -1.72209735      -3.18850175       0.00000000
Si       1.64283021       1.07111818      -3.29566878       0.00000000
