10
Lattice="16.28999089631971 0.0 0.0 0.0 16.28999089631971 0.0 0.0 0.0 34.24959146834617" Properties=species:S:1:pos:R:3:initial_magmoms:R:1 pbc="T T T"
Si      -1.35620440       1.35668007      -1.35724357       0.00000000
Si      -1.35627282      -1.35741312       1.35830531       0.00000000
Si       1.35770634       1.35640314       1.35854505       0.00000000
Si       1.35878148      -1.35837423      -1.35806556       0.00000000
Si      -2.71313377       0.00125433       2.71517213       0.00000000
Si      -2.71398398       2.71448415       0.00003425       0.00000000
Si       0.00164529      -2.71500543      -2.71376790       0.00000000
Si      -2.71404522      -2.71539639       0.00003425       0.00000000
Si       0.00218286       2.71505430      -2.71458989       0.00000000
Si       2.71593396       0.00172674      -2.71400764       0.00000000
