10
Lattice="16.28999089631971 0.0 0.0 0.0 16.28999089631971 0.0 0.0 0.0 34.24959146834617" Properties=species:S:1:pos:R:3:initial_magmoms:R:1 pbc="T T T"
Si      -2.03639661      -0.92343123       0.61132130       0.00000000
Si       1.69991037      -1.59964542       0.42479792       0.00000000
Si      -0.31353363       0.30625200      -2.33260398       0.00000000
Si       0.20773008       2.25209250       1.13321687       0.00000000
Si       2.54285271       2.07158301       0.46295199       0.00000000
Si       0.28896831      -3.29466879       1.40334355       0.00000000
Si      -2.32624458       1.52761104      -2.28626426       0.00000000
Si      -3.54670767       0.43575750      -0.51073019       0.00000000
Si       3.27313341       0.13861161       1.75772427       0.00000000
Si      -1.81556937      -3.30206445       0.30153357       0.00000000
