10
Lattice="16.28999089631971 0.0 0.0 0.0 16.28999089631971 0.0 0.0 0.0 34.24959146834617" Properties=species:S:1:pos:R:3:initial_magmoms:R:1 pbc="T T T"
Si       0.54115380      -0.56208645       2.21975151       0.00000000
Si      -0.60561333       2.27504511      -0.05764209       0.00000000
Si      -1.80750582      -1.18575724      -1.04235265       0.00000000
Si       2.32536722      -0.26814969      -0.62214418       0.00000000
Si      -0.88378137       1.09224450      -2.87227509       0.00000000
Si       0.63283392       3.01262373       1.83588188       0.00000000
Si       2.73685751       1.88068050      -1.41916687       0.00000000
Si      -2.43770076      -2.70450557       0.81079103       0.00000000
Si       1.64709819       1.29937185       3.10643968       0.00000000
Si      -1.30901553      -0.19499130       3.59874359       0.00000000
