10
Lattice="16.28999089631971 0.0 0.0 0.0 16.28999089631971 0.0 0.0 0.0 34.24959146834617" Properties=species:S:1:pos:R:3:initial_magmoms:R:1 pbc="T T T"
Si      -1.35423657      -1.36094805      -1.39046569       0.00000000
Si       1.36448298       1.35454608      -1.38731473       0.00000000
Si       1.44573750      -1.30914585       1.42502355       0.00000000
Si      -1.38188070       1.36080144       1.52242944       0.00000000
Si      -2.70824671       2.69065188      -0.02719419       0.00000000
Si      -2.69916666      -2.71247722      -0.00678142       0.00000000
Si       2.70273906       2.72010420      -0.00743217       0.00000000
Si       2.72394864      -2.71597306      -0.02157725       0.00000000
Si      -2.70778896      -0.00399105      -2.74859975       0.00000000
Si       0.00619020       2.70982521      -2.74836000       0.00000000
