10
Lattice="16.28999089631971 0.0 0.0 0.0 16.28999089631971 0.0 0.0 0.0 34.24959146834617" Properties=species:S:1:pos:R:3:initial_magmoms:R:1 pbc="T T T"
Si      -1.35765747      -1.35651717       1.35690107       0.00000000
Si       1.35809730       1.35681039       1.35714082       0.00000000
Si      -1.35739683       1.35749457      -1.35741482       0.00000000
Si       1.35811359      -1.35785295      -1.35755182       0.00000000
Si      -0.00340461      -2.71083519       2.71599412       0.00000000
Si      -2.71366965      -0.00149868       2.71414464       0.00000000
Si       0.00205254      -2.71458189      -2.71421314       0.00000000
Si      -2.71502172      -2.71445157       0.00000000       0.00000000
Si      -2.71474479       2.71498914      -0.00034250       0.00000000
Si      -2.71487511       0.00289962      -2.71486388       0.00000000
