10
Lattice="16.28999089631971 0.0 0.0 0.0 16.28999089631971 0.0 0.0 0.0 34.24959146834617" Properties=species:S:1:pos:R:3:initial_magmoms:R:1 pbc="T T T"
Si       1.35425286      -1.35431802       1.35909305       0.00000000
Si      -1.35601218       1.35501849       1.35724357       0.00000000
Si       1.35765747       1.35651717      -1.35690107       0.00000000
Si      -1.35736425      -1.35793440      -1.35690107       0.00000000
Si       0.00449604       2.69619048       2.72215905       0.00000000
Si       2.69540856       0.01394424       2.73075570       0.00000000
Si      -2.71306692       2.71376739      -0.00010275       0.00000000
Si       0.00026064       2.71401174      -2.71431589       0.00000000
Si       2.71575477       2.71332756       0.00023975       0.00000000
Si      -2.71497285      -0.00035838      -2.71452139       0.00000000
