10
Lattice="16.28999089631971 0.0 0.0 0.0 16.28999089631971 0.0 0.0 0.0 34.24959146834617" Properties=species:S:1:pos:R:3:initial_magmoms:R:1 pbc="T T T"
Si       1.35640320       1.33597548       1.36453874       0.00000000
Si      -1.35829828       1.35496962      -1.35765456       0.00000000
Si       1.35686095      -1.35866745      -1.35686682       0.00000000
Si      -1.37864449      -1.34441370       1.37286139       0.00000000
Si      -0.02224135       2.72793969       2.64489193       0.00000000
Si      -2.71527157       2.71073745       0.00304822       0.00000000
Si       2.71041334      -2.71562445       0.00126724       0.00000000
Si       2.71313377      -0.00125433      -2.71517213       0.00000000
Si      -0.00085021       2.71322982      -2.71513788       0.00000000
Si       2.71559356       2.71322982       0.00068499       0.00000000
