10
Lattice="16.28999089631971 0.0 0.0 0.0 16.28999089631971 0.0 0.0 0.0 34.24959146834617" Properties=species:S:1:pos:R:3:initial_magmoms:R:1 pbc="T T T"
Si      -1.37205783       1.41636663       1.24969979       0.00000000
Si       1.56616947      -1.20734964       1.33015213       0.00000000
Si      -1.57224564      -1.43422047      -1.10417320       0.00000000
Si       1.50276879       1.94347845      -0.62519239       0.00000000
Si      -0.63856800      -2.52126846       1.59863482       0.00000000
Si       1.10812725      -1.13409351      -2.80411837       0.00000000
Si      -1.30741911      -0.30760407      -3.08585567       0.00000000
Si       0.32219991       2.00876877       2.70952094       0.00000000
Si       2.29810102       2.11141206       1.58212651       0.00000000
Si       2.43369246       0.77188536      -2.41613878       0.00000000
