10
Lattice="16.28999089631971 0.0 0.0 0.0 16.28999089631971 0.0 0.0 0.0 34.24959146834617" Properties=species:S:1:pos:R:3:initial_magmoms:R:1 pbc="T T T"
Si      -2.06073387       0.46476999       1.02546759       0.00000000
Si       0.60561333      -2.27504511       0.05764209       0.00000000
Si       1.23844725       0.73757862       1.89352397       0.00000000
Si       2.20473747       1.31391882      -0.26848270       0.00000000
Si       0.63856800       2.52126846      -1.59863482       0.00000000
Si      -0.93367764       1.08704799      -2.70280802       0.00000000
Si      -0.27816804      -1.18280061      -2.81463300       0.00000000
Si       3.34247084      -0.39436461      -1.36152477       0.00000000
Si      -1.66301352      -0.31565133       3.23569771       0.00000000
Si      -3.75005574      -0.30095775      -0.45558832       0.00000000
