10
Lattice="16.28999089631971 0.0 0.0 0.0 16.28999089631971 0.0 0.0 0.0 34.24959146834617" Properties=species:S:1:pos:R:3:initial_magmoms:R:1 pbc="T T T"
Si       1.76076396      -0.73259388       1.35847656       0.00000000
Si       0.29333403      -1.31020470      -1.92277314       0.00000000
Si       0.94736124       1.81859931      -1.18548177       0.00000000
Si      -2.29705290       0.29857941       0.69482185       0.00000000
Si       1.40038176       0.43109856      -3.04489313       0.00000000
Si      -2.13656382      -1.36831113       2.32798028       0.00000000
Si       1.18552104      -2.95902963       1.44112087       0.00000000
Si      -1.83707217      -1.21713993      -2.86069873       0.00000000
Si      -3.44839752      -0.81205650      -1.15541061       0.00000000
Si       3.03867863       2.20180527      -0.19166082       0.00000000
