10
Lattice="16.28999089631971 0.0 0.0 0.0 16.28999089631971 0.0 0.0 0.0 34.24959146834617" Properties=species:S:1:pos:R:3:initial_magmoms:R:1 pbc="T T T"
Si       1.25522595      -1.28708919       1.53610189       0.00000000
Si      -0.75044772      -1.94494455      -1.26545602       0.00000000
Si       1.12454757       1.71823662      -1.35745048       0.00000000
Si      -1.47600432       1.40252013       1.50786308       0.00000000
Si       2.68666083      -2.52512919       0.08665494       0.00000000
Si       2.61210150       2.74605417       0.17710816       0.00000000
Si      -0.72444888       3.39206670      -1.54596033       0.00000000
Si      -2.67889050       2.78767512      -0.08535688       0.00000000
Si      -2.78503614      -2.69558775      -0.03478733       0.00000000
Si       2.59620246       0.06517629       2.90893588       0.00000000
