10
Lattice="16.28999089631971 0.0 0.0 0.0 16.28999089631971 0.0 0.0 0.0 34.24959146834617" Properties=species:S:1:pos:R:3:initial_magmoms:R:1 pbc="T T T"
Si       1.35690813      -1.35668007      -1.35703807       0.00000000
Si      -1.35736425       1.35803214      -1.35724357       0.00000000
Si       1.35814617       1.35741312       1.35738057       0.00000000
Si      -1.35935163      -1.35645201       1.35816831       0.00000000
Si       2.71295289       0.00192222       2.71393914       0.00000000
Si       0.00109143       2.71463076      -2.71318565       0.00000000
Si      -2.71360449      -0.00110772       2.71445289       0.00000000
Si       2.71432388       0.00158013      -2.71407614       0.00000000
Si      -2.71524978       0.00138465      -2.71424739       0.00000000
Si       2.71510553      -2.71480995       0.00006850       0.00000000
