10
Lattice="16.28999089631971 0.0 0.0 0.0 16.28999089631971 0.0 0.0 0.0 34.24959146834617" Properties=species:S:1:pos:R:3:initial_magmoms:R:1 pbc="T T T"
Si       1.44419225       0.58901382       1.74395592       0.00000000
Si      -0.30799503       2.29042287      -0.55611093       0.00000000
Si      -1.77863994      -1.30655574       0.91336862       0.00000000
Si       1.40295900      -1.66913856      -1.00056812       0.00000000
Si       1.01807613      -1.46355876       2.88138549       0.00000000
Si       1.94899980      -2.63515185       1.09043910       0.00000000
Si      -3.38436153      -0.74756439      -0.65228383       0.00000000
Si      -2.63314818       2.73489552       0.13528596       0.00000000
Si      -0.73207260       2.37767211      -2.87309709       0.00000000
Si      -2.33952093      -0.38185389       3.07119683       0.00000000
