10
Lattice="16.28999089631971 0.0 0.0 0.0 16.28999089631971 0.0 0.0 0.0 34.24959146834617" Properties=species:S:1:pos:R:3:initial_magmoms:R:1 pbc="T T T"
Si      -2.14286805       0.95236227       0.15261626       0.00000000
Si       1.30715847       0.58785723       1.88725629       0.00000000
Si       1.49558490       0.79628778      -1.66069512       0.00000000
Si      -0.64285227      -2.26745397      -0.56141962       0.00000000
Si       1.75365108      -2.77030998      -1.28809361       0.00000000
Si       1.84764438      -1.10952819      -2.87854277       0.00000000
Si      -3.22558290       0.47019456      -1.89773667       0.00000000
Si       0.21950775       2.06454573      -3.15801960       0.00000000
Si       2.73820239      -1.18408752       2.36901132       0.00000000
Si      -1.92020004       3.17278701       1.03851669       0.00000000
