10
Lattice="16.28999089631971 0.0 0.0 0.0 16.28999089631971 0.0 0.0 0.0 34.24959146834617" Properties=species:S:1:pos:R:3:initial_magmoms:R:1 pbc="T T T"
Si       1.21391451      -0.67903236      -1.90866230       0.00000000
Si      -1.69991037       1.59964542      -0.42479792       0.00000000
Si      -1.41094206      -1.69502337       0.97854562       0.00000000
Si       1.57322304       1.73825703       1.33292635       0.00000000
Si       0.84294234       3.67122843       0.03815407       0.00000000
Si      -3.73630698       0.67621419       0.18652338       0.00000000
Si       2.77821063       1.08317097      -2.35880493       0.00000000
Si       2.64495843      -2.45097711      -1.42690728       0.00000000
Si      -3.51547974      -1.70241903      -0.12326435       0.00000000
Si      -2.01344400       1.90589742      -2.75740190       0.00000000
