10
Lattice="16.28999089631971 0.0 0.0 0.0 16.28999089631971 0.0 0.0 0.0 34.24959146834617" Properties=species:S:1:pos:R:3:initial_magmoms:R:1 pbc="T T T"
Si       1.35787475       1.34195391      -1.36106925       0.00000000
Si      -1.34097651      -1.35226548      -1.37283399       0.00000000
Si      -1.35487188       1.35607734       1.35625033       0.00000000
Si       1.35836057      -1.35697329       1.35535984       0.00000000
Si       0.01589904       2.68087788      -2.73182772       0.00000000
Si       0.09045837      -2.59030548      -2.82228094       0.00000000
Si      -2.71332756      -0.00052128       2.71219241       0.00000000
Si       0.00109143       2.71419093       2.71239791       0.00000000
Si      -2.71230129       2.71456560      -0.00695267       0.00000000
Si       0.00094482      -2.71523349       2.71239791       0.00000000
