10
Lattice="16.28999089631971 0.0 0.0 0.0 16.28999089631971 0.0 0.0 0.0 34.24959146834617" Properties=species:S:1:pos:R:3:initial_magmoms:R:1 pbc="T T T"
Si       1.21759605       2.02628052      -0.11665417       0.00000000
Si      -2.34981621       0.39594474      -0.14754732       0.00000000
Si       1.28425473      -1.68456519       1.15164316       0.00000000
Si       0.15359841      -0.74494170      -2.30212183       0.00000000
Si      -2.81284317      -1.87558173      -0.54864451       0.00000000
Si      -1.62986337      -2.89716021       1.19503741       0.00000000
Si      -0.31936545       1.27128789      -3.37266191       0.00000000
Si       3.43013643       1.20720303      -0.10429006       0.00000000
Si       3.45861135      -1.07593821       0.59837495       0.00000000
Si      -2.50466895       1.54520424      -2.33455621       0.00000000
