10
Lattice="16.28999089631971 0.0 0.0 0.0 16.28999089631971 0.0 0.0 0.0 34.24959146834617" Properties=species:S:1:pos:R:3:initial_magmoms:R:1 pbc="T T T"
Si      -1.34037476       1.88028954       0.70084978       0.00000000
Si       1.28971677       1.05648795      -1.75679953       0.00000000
Si      -2.37332498      -0.67437342       0.00972689       0.00000000
Si       0.48287307       0.59043105       2.50138606       0.00000000
Si       2.51260707      -0.32177637       1.32539143       0.00000000
Si      -1.53908150      -1.71506007      -1.93479475       0.00000000
Si       2.15673573       3.03855741      -0.46956216       0.00000000
Si      -1.91428907       1.61578881       2.93306815       0.00000000
Si      -0.03664924       2.38633839      -3.30642316       0.00000000
Si       2.67159747      -0.30431349      -3.27922897       0.00000000
