10
Lattice="16.28999089631971 0.0 0.0 0.0 16.28999089631971 0.0 0.0 0.0 34.24959146834617" Properties=species:S:1:pos:R:3:initial_magmoms:R:1 pbc="T T T"
Si      -2.18584922       0.71625501      -0.04222977       0.00000000
Si       1.35366642       1.10908836      -1.62856898       0.00000000
Si       0.46138167       0.61247142       2.29945036       0.00000000
Si      -1.11425229      -2.21508162      -0.86189145       0.00000000
Si       3.53219328       0.22674051      -1.07167032       0.00000000
Si       1.74118923      -1.22157081       3.04153667       0.00000000
Si      -3.51141443      -1.18972386      -0.43020936       0.00000000
Si       0.45669015      -3.02467833       2.24756220       0.00000000
Si       0.91548171      -3.12728904      -2.03788608       0.00000000
Si      -2.73189001       1.68226830      -2.13323700       0.00000000
