10
Lattice="16.28999089631971 0.0 0.0 0.0 16.28999089631971 0.0 0.0 0.0 34.24959146834617" Properties=species:S:1:pos:R:3:initial_magmoms:R:1 pbc="T T T"
Si      -1.35053385       1.29397401      -1.40712470       0.00000000
Si       1.34221455       1.35938162       1.35718877       0.00000000
Si      -1.37329587      -1.35423657       1.35626403       0.00000000
Si       1.27257480      -1.39541769      -1.42416046       0.00000000
Si      -2.29089202      -0.46649673      -2.64309588       0.00000000
Si      -0.50238360      -2.24924175      -2.88422962       0.00000000
Si       2.68835499      -2.72562651      -0.02302259       0.00000000
Si       2.68064982       2.73449546      -0.02003260       0.00000000
Si       2.69829189       0.00303847       2.71864504       0.00000000
Si      -0.01524744      -2.71376739       2.71741206       0.00000000
