10
Lattice="16.28999089631971 0.0 0.0 0.0 16.28999089631971 0.0 0.0 0.0 34.24959146834617" Properties=species:S:1:pos:R:3:initial_magmoms:R:1 pbc="T T T"
Si      -2.14562106       0.97220905      -0.08339780       0.00000000
Si       1.81894140       1.06051877       1.12592170       0.00000000
Si       1.11185766      -0.05323572      -2.11717393       0.00000000
Si      -0.39970773      -1.96160922       1.31360957       0.00000000
Si      -0.88115868      -1.82858508      -2.45949879       0.00000000
Si      -0.48272157       3.10677083      -1.29877948       0.00000000
Si       2.37389283      -0.47032488       2.80709809       0.00000000
Si       0.33889716      -1.29785688       3.45825168       0.00000000
Si       3.23677413      -0.93506229      -1.56551545       0.00000000
Si       0.55803024      -3.71954457       0.03873631       0.00000000
