10
Lattice="10.86 0.0 0.0 0.0 10.86 0.0 0.0 0.0 10.86" Properties=species:S:1:pos:R:3:initial_magmoms:R:1 pbc="T T T"
Si       1.15845792       1.37469138       1.29207936       0.00000000
Si       1.15845792      -1.34030862      -1.42292064       0.00000000
Si      -1.55654208      -1.34030862       1.29207936       0.00000000
Si       2.51595792       0.01719138       2.64957936       0.00000000
Si       2.51595792      -2.69780862      -0.06542064       0.00000000
Si       2.51595792       2.73219138      -0.06542064       0.00000000
Si       2.51595792       0.01719138      -2.78042064       0.00000000
Si      -0.19904208      -2.69780862       2.64957936       0.00000000
Si      -0.19904208      -2.69780862      -2.78042064       0.00000000
Si      -0.23764938       2.85206406       2.62376514       0.00000000
