10
Lattice="10.86 0.0 0.0 0.0 10.86 0.0 0.0 0.0 10.86" Properties=species:S:1:pos:R:3:initial_magmoms:R:1 pbc="T T T"
Si       1.30550232       1.34115570       1.28260944       0.00000000
Si       1.41174570      -1.35468726      -1.27928628       0.00000000
Si      -1.40949768      -1.37384430       1.28260944       0.00000000
Si      -1.40949768       1.34115570      -1.43239056       0.00000000
Si      -0.05199768       2.69865570       2.64010944       0.00000000
Si       2.66300232       2.69865570      -0.07489056       0.00000000
Si      -0.06596364      -2.71448958      -2.67385146       0.00000000
Si      -2.76699768      -0.01634430       2.64010944       0.00000000
Si       2.65557408       0.07521636       2.75350956       0.00000000
Si      -0.14056098      -2.76884388       2.65543290       0.00000000
