10
Lattice="10.86 0.0 0.0 0.0 10.86 0.0 0.0 0.0 10.86" Properties=species:S:1:pos:R:3:initial_magmoms:R:1 pbc="T T T"
Si      -1.23413040      -1.28944038       1.48031574       0.00000000
Si       1.45311144       1.45141728       1.23726894       0.00000000
Si      -1.26188856       1.45141728      -1.47773106       0.00000000
Si       1.45311144      -1.26358272      -1.47773106       0.00000000
Si      -2.61657582      -2.55066648      -0.03107046       0.00000000
Si      -2.57960838       0.15246354       2.70497622       0.00000000
Si       0.09561144       2.80891728       2.59476894       0.00000000
Si      -2.61938856       2.80891728      -0.12023106       0.00000000
Si      -2.61938856       0.09391728      -2.83523106       0.00000000
Si       0.09561144      -2.62108272      -2.83523106       0.00000000
