10
Lattice="10.86 0.0 0.0 0.0 10.86 0.0 0.0 0.0 10.86" Properties=species:S:1:pos:R:3:initial_magmoms:R:1 pbc="T T T"
Si       1.35750000       1.35750000       1.35750000       0.00000000
Si       1.35750000      -1.35750000      -1.35750000       0.00000000
Si      -1.35750000      -1.35750000       1.35750000       0.00000000
Si      -1.35750000       1.35750000      -1.35750000       0.00000000
Si       2.54525820      -0.01744116       2.75600736       0.00000000
Si      -2.53307328       0.11918850      -2.79235578       0.00000000
Si      -2.65598676       2.67410124       0.16031532       0.00000000
Si       2.71781274       0.07041624      -2.62583940       0.00000000
Si      -2.79164988       0.07151310       2.56526232       0.00000000
Si      -2.76394602      -2.61342642      -0.13125396       0.00000000
