10
Lattice="10.86 0.0 0.0 0.0 10.86 0.0 0.0 0.0 10.86" Properties=species:S:1:pos:R:3:initial_magmoms:R:1 pbc="T T T"
Si      -1.46795706      -1.36588392       1.10592810       0.00000000
Si      -1.38255402       1.31502654      -1.36982610       0.00000000
Si       2.58553794       0.05489730       2.30988942       0.00000000
Si      -0.08304642      -2.68399470       2.41718622       0.00000000
Si       0.08867190       2.65405368       2.48843868       0.00000000
Si       2.61324180      -2.63004222      -0.38662686       0.00000000
Si       2.72120106       2.65748544      -0.09505758       0.00000000
Si      -2.93755398      -0.03405696       2.50063446       0.00000000
Si      -0.14842362       2.60446692      -2.85014184       0.00000000
Si      -2.72803200       2.75693046      -0.14516562       0.00000000
