10
Lattice="16.28999089631971 0.0 0.0 0.0 16.28999089631971 0.0 0.0 0.0 34.450931932916035" Properties=species:S:1:pos:R:3:initial_magmoms:R:1 pbc="T T T"
Si       1.60180873       1.04840811      -1.37938163       0.00000000
Si      -1.32734993       1.12711440       1.60372623       0.00000000
Si       1.41253522      -1.45007064       1.26707153       0.00000000
Si      -1.06907686      -1.35278676      -1.69674380       0.00000000
Si       1.01561308      -2.13908877      -2.50806370       0.00000000
Si      -1.98457227       2.88986948      -0.07317382       0.00000000
Si       2.60747188      -2.39335938      -0.81324915       0.00000000
Si       1.82071375      -0.14670774      -3.40103235       0.00000000
Si       2.56392871      -0.16882956       2.98041177       0.00000000
Si      -0.10615704       2.42684577       3.14899061       0.00000000
