10
Lattice="16.28999089631971 0.0 0.0 0.0 16.28999089631971 0.0 0.0 0.0 34.450931932916035" Properties=species:S:1:pos:R:3:initial_magmoms:R:1 pbc="T T T"
Si      -1.42905654       1.22455188      -1.38878674       0.00000000
Si       1.30639284      -1.49822225      -1.37311156       0.00000000
Si      -1.87388757      -1.03539240       1.21070978       0.00000000
Si       1.09916775       1.68847479       1.45014389       0.00000000
Si       0.95457771      -0.21199806       3.09882861       0.00000000
Si      -0.44424459      -2.24769094       2.67136121       0.00000000
Si      -2.66593995       2.55010176       0.25734861       0.00000000
Si      -0.07195293       2.56455099      -2.75745413       0.00000000
Si       2.64505617      -0.14853222      -2.75524927       0.00000000
Si       2.77843869       2.71801908       0.01164442       0.00000000
