10
Lattice="16.28999089631971 0.0 0.0 0.0 16.28999089631971 0.0 0.0 0.0 34.450931932916035" Properties=species:S:1:pos:R:3:initial_magmoms:R:1 pbc="T T T"
Si       1.08219357       1.88631684      -1.01843902       0.00000000
Si       1.45059192      -1.01972142       1.65020056       0.00000000
Si      -0.54284796      -2.00523384      -1.28781101       0.00000000
Si      -2.07559035       1.11754287       0.68781324       0.00000000
Si      -3.47242527      -0.75497634       0.32873098       0.00000000
Si      -0.66922578      -3.58008588       0.48785992       0.00000000
Si      -2.55407652       2.53501722      -1.21132989       0.00000000
Si      -2.85464331      -1.90353537      -1.64041649       0.00000000
Si       1.20050784       0.31680792       3.61865901       0.00000000
Si       1.82169441       1.29697722      -3.20707350       0.00000000
