10
Lattice="16.28999089631971 0.0 0.0 0.0 16.28999089631971 0.0 0.0 0.0 34.450931932916035" Properties=species:S:1:pos:R:3:initial_magmoms:R:1 pbc="T T T"
Si       1.60300116       0.30179343       1.72816306       0.00000000
Si       0.12637782       1.57485204      -1.77567093       0.00000000
Si      -0.73296855      -2.21476301      -0.50122689       0.00000000
Si      -1.87926327       1.04931220       1.11176665       0.00000000
Si      -2.18541753       1.67655051      -2.12827641       0.00000000
Si       2.11981770       2.56036446       1.16234064       0.00000000
Si       0.19111428      -3.37156478       1.33924628       0.00000000
Si       0.28181700       0.14098181       3.62534250       0.00000000
Si      -3.07033920      -1.98756638      -0.21597301       0.00000000
Si       0.66922578       3.58008588      -0.48785992       0.00000000
