10
Lattice="16.28999089631971 0.0 0.0 0.0 16.28999089631971 0.0 0.0 0.0 34.450931932916035" Properties=species:S:1:pos:R:3:initial_magmoms:R:1 pbc="T T T"
Si      -0.51681654      -2.25857103       0.56582242       0.00000000
Si      -0.25008408       1.33652934       1.96845845       0.00000000
Si       2.17512225      -0.42093360      -0.91987485       0.00000000
Si      -1.45059192       1.01972142      -1.65020056       0.00000000
Si      -2.11981770      -2.56036446      -1.16234064       0.00000000
Si      -1.99343988      -0.98551242      -2.93801157       0.00000000
Si       3.52496052       1.29165039       0.08299234       0.00000000
Si       0.04904919       3.60908208       1.18549168       0.00000000
Si      -2.56725513       1.24659225       2.61169216       0.00000000
Si      -1.83800070      -2.41938266       2.46300185       0.00000000
