10
Lattice="16.28999089631971 0.0 0.0 0.0 16.28999089631971 0.0 0.0 0.0 34.450931932916035" Properties=species:S:1:pos:R:3:initial_magmoms:R:1 pbc="T T T"
Si       1.06947108      -1.50416810      -1.71266014       0.00000000
Si       1.74592962       0.28572660       1.84080979       0.00000000
Si      -1.68871914      -1.20106333       1.57089447       0.00000000
Si      -1.60213779       2.00189439      -1.07814252       0.00000000
Si       0.01184283      -0.67341557       3.15839572       0.00000000
Si      -0.45554985      -1.43036788      -3.50707238       0.00000000
Si       3.26015028      -0.56491276      -1.93373189       0.00000000
Si       1.09182096      -3.80846258      -0.80305167       0.00000000
Si       2.77542504       1.72626759      -2.38369576       0.00000000
Si       2.51923221       3.28331466      -0.57453851       0.00000000
