10
Lattice="16.28999089631971 0.0 0.0 0.0 16.28999089631971 0.0 0.0 0.0 34.450931932916035" Properties=species:S:1:pos:R:3:initial_magmoms:R:1 pbc="T T T"
Si      -1.40377446       1.26420174       1.33220450       0.00000000
Si       1.31116581      -1.48454028       1.29285463       0.00000000
Si      -1.83689298      -0.87381189      -1.22267253       0.00000000
Si       1.65996729       0.95311161      -1.42692881       0.00000000
Si      -0.04352688       2.60214831       2.66899443       0.00000000
Si       2.69042382       2.61192231      -0.00965660       0.00000000
Si      -2.78563887       2.52641610      -0.04191303       0.00000000
Si       2.67605604      -0.11530062       2.66420574       0.00000000
Si      -2.75656122      -0.11502369       2.66200088       0.00000000
Si      -2.72699487      -2.74432743      -0.10735605       0.00000000
