10
Lattice="16.28999089631971 0.0 0.0 0.0 16.28999089631971 0.0 0.0 0.0 34.450931932916035" Properties=species:S:1:pos:R:3:initial_magmoms:R:1 pbc="T T T"
Si      -1.39683492      -1.87251921      -0.35908226       0.00000000
Si      -0.47848617       1.41747435      -1.89914314       0.00000000
Si      -0.02619432       0.81311535       2.28182430       0.00000000
Si       2.07559035      -1.11754287      -0.68781324       0.00000000
Si       3.15778392       0.76877397      -1.70625226       0.00000000
Si      -2.09461707       0.09122400      -3.03178706       0.00000000
Si      -3.32404129      -0.96474267      -1.33635240       0.00000000
Si       1.60032960       2.40736878      -2.37125897       0.00000000
Si      -2.84697072       2.17723995       1.06911637       0.00000000
Si      -0.47289870      -3.64831655       0.91181333       0.00000000
