10
Lattice="16.28999089631971 0.0 0.0 0.0 16.28999089631971 0.0 0.0 0.0 34.450931932916035" Properties=species:S:1:pos:R:3:initial_magmoms:R:1 pbc="T T T"
Si       1.33421616      -1.33252200      -1.37450338       0.00000000
Si       1.37660274       1.32897078       1.37422088       0.00000000
Si      -1.33652934      -1.38767994       1.37019012       0.00000000
Si      -1.35363384       1.45428975      -1.52147458       0.00000000
Si      -2.70264132       2.68309080       0.01053855       0.00000000
Si       2.72504007       2.66454261       0.01506885       0.00000000
Si       0.01992267       2.68499495       2.72907344       0.00000000
Si      -2.69708643      -0.02805138       2.72972801       0.00000000
Si      -2.69886204      -2.73603582      -0.00296967       0.00000000
Si       2.72000646      -2.73111624       0.00761022       0.00000000
