10
Lattice="16.28999089631971 0.0 0.0 0.0 16.28999089631971 0.0 0.0 0.0 34.450931932916035" Properties=species:S:1:pos:R:3:initial_magmoms:R:1 pbc="T T T"
Si       1.35764118       1.35637056      -1.35698852       0.00000000
Si      -1.35899325       1.35496962       1.35788424       0.00000000
Si      -1.35738054      -1.35840681      -1.35674736       0.00000000
Si       1.35553977      -1.35646830       1.36291408       0.00000000
Si       0.00009774       2.71414206      -2.71435599       0.00000000
Si      -2.71445157      -0.00092853      -2.71445935       0.00000000
Si      -2.71457049       2.71445157       0.00068902       0.00000000
Si       2.71661814       2.71270854       0.00013780       0.00000000
Si       2.71554300      -0.00128691      -2.71387368       0.00000000
Si       0.00063531      -2.71544526      -2.71397703       0.00000000
