10
Lattice="16.28999089631971 0.0 0.0 0.0 16.28999089631971 0.0 0.0 0.0 34.450931932916035" Properties=species:S:1:pos:R:3:initial_magmoms:R:1 pbc="T T T"
Si       0.89003673      -1.11228120       1.89032369       0.00000000
Si       1.73754027       1.02399936      -1.28088637       0.00000000
Si      -1.04451480      -1.68510276      -1.37896822       0.00000000
Si      -1.51479081       1.50916491       1.27706231       0.00000000
Si      -0.87431688      -2.66712912       2.16148713       0.00000000
Si       0.23584662       2.25863361      -2.76741046       0.00000000
Si      -2.50434315      -0.46589400      -2.78322344       0.00000000
Si       3.40946442       1.80568690       0.27536645       0.00000000
Si       1.16905185       0.29750427       3.69810290       0.00000000
Si       2.04125103       2.32357206       2.43075576       0.00000000
