10
Lattice="16.28999089631971 0.0 0.0 0.0 16.28999089631971 0.0 0.0 0.0 34.450931932916035" Properties=species:S:1:pos:R:3:initial_magmoms:R:1 pbc="T T T"
Si       0.92408283      -1.15680177       1.84047317       0.00000000
Si      -2.33737065       0.22719663       0.28525388       0.00000000
Si       0.73296855       2.21476301       0.50122689       0.00000000
Si       0.84216042      -0.72951507      -2.12717398       0.00000000
Si      -2.75160906       1.88224990      -1.40497869       0.00000000
Si       0.30667554       0.16307919       3.72693835       0.00000000
Si      -1.14629472       3.26407521       1.61299353       0.00000000
Si       3.31538967      -1.17714798       1.48528386       0.00000000
Si       0.63144927      -3.20872275      -2.09875195       0.00000000
Si      -2.76874614       1.64823849       2.18401805       0.00000000
