10
Lattice="16.28999089631971 0.0 0.0 0.0 16.28999089631971 0.0 0.0 0.0 34.450931932916035" Properties=species:S:1:pos:R:3:initial_magmoms:R:1 pbc="T T T"
Si      -0.92408283       1.15680177      -1.84047317       0.00000000
Si      -0.61740729       1.31988096       1.88646519       0.00000000
Si       2.39130684      -0.02034621      -0.35518931       0.00000000
Si      -0.88314606      -2.01688119       1.00862050       0.00000000
Si      -0.19111428       3.37156478      -1.33924628       0.00000000
Si       0.51789168      -2.20825611       2.88185652       0.00000000
Si      -0.00669519      -0.04940757       3.70878270       0.00000000
Si      -3.26145348       1.38399840      -1.55521929       0.00000000
Si       3.16661310      -2.26295793       0.17552760       0.00000000
Si       3.23677413       2.06164611       0.73518330       0.00000000
