10
Lattice="16.28999089631971 0.0 0.0 0.0 16.28999089631971 0.0 0.0 0.0 34.450931932916035" Properties=species:S:1:pos:R:3:initial_magmoms:R:1 pbc="T T T"
Si       0.01164735      -2.14063632       0.79440448       0.00000000
Si      -1.59185880       0.25427061      -1.69481454       0.00000000
Si       2.07788724       0.42251373      -1.25821764       0.00000000
Si      -1.19493666       0.94328874       2.08032069       0.00000000
Si      -0.78675813       2.24665164      -2.58778320       0.00000000
Si       1.91042604      -3.03323058      -0.30806041       0.00000000
Si      -1.00566315       3.44176749      -0.56613248       0.00000000
Si      -2.60747188       2.39335938       0.81324915       0.00000000
Si      -1.08308952      -1.52148600      -3.20583326       0.00000000
Si       1.41472134      -2.12305941       2.69967820       0.00000000
