10
Lattice="16.28999089631971 0.0 0.0 0.0 16.28999089631971 0.0 0.0 0.0 34.450931932916035" Properties=species:S:1:pos:R:3:initial_magmoms:R:1 pbc="T T T"
Si      -1.35839052       1.35732190       1.36494669       0.00000000
Si       1.35769005      -1.35928258       1.36442992       0.00000000
Si      -1.36638891      -1.37989039      -1.34998808       0.00000000
Si       1.36018242       1.37861293      -1.36538421       0.00000000
Si      -2.71371852       2.71284538       0.00844048       0.00000000
Si       2.71204065       2.71620112       0.00857829       0.00000000
Si      -2.71482624      -2.71546222       0.00916395       0.00000000
Si       2.71484253      -2.71629301       0.00485758       0.00000000
Si       0.00034209       2.71405084       2.72200410       0.00000000
Si      -2.71511946      -0.00125270       2.72179740       0.00000000
