10
Lattice="16.28999089631971 0.0 0.0 0.0 16.28999089631971 0.0 0.0 0.0 34.450931932916035" Properties=species:S:1:pos:R:3:initial_magmoms:R:1 pbc="T T T"
Si       0.67284216      -0.26206212      -2.16098384       0.00000000
Si       1.91254374       0.82662628       1.08080041       0.00000000
Si      -0.92051532      -1.96383348       1.02044923       0.00000000
Si      -1.88950968       1.62981287      -0.18522967       0.00000000
Si       0.49542777       2.12253650       2.46260050       0.00000000
Si      -2.23114356      -0.63596681       2.47799663       0.00000000
Si      -0.89072091       3.46709681       0.94966286       0.00000000
Si      -3.62359647       0.67067070       1.13235626       0.00000000
Si       1.41628518      -2.45281041      -2.70575673       0.00000000
Si      -0.86475465       0.74392357       3.82798471       0.00000000
