10
Lattice="16.28999089631971 0.0 0.0 0.0 16.28999089631971 0.0 0.0 0.0 34.450931932916035" Properties=species:S:1:pos:R:3:initial_magmoms:R:1 pbc="T T T"
Si       1.35749457       1.35639988      -1.35902112       0.00000000
Si      -1.35760860      -1.35804939      -1.35909002       0.00000000
Si       1.35728280      -1.36145001       1.35616169       0.00000000
Si      -1.36041048       1.35685600       1.35877997       0.00000000
Si       2.69597871       0.02270174       2.70546765       0.00000000
Si      -2.71419093       2.71490443      -0.00210151       0.00000000
Si       2.71443528       2.71521394      -0.00144694       0.00000000
Si       2.71463076      -2.71524393      -0.00103353       0.00000000
Si       2.71453302      -0.00031928      -2.71635415       0.00000000
Si      -2.71397916      -2.71692180      -0.00203261       0.00000000
