10
Lattice="16.28999089631971 0.0 0.0 0.0 16.28999089631971 0.0 0.0 0.0 34.450931932916035" Properties=species:S:1:pos:R:3:initial_magmoms:R:1 pbc="T T T"
Si       1.97364753       0.76610241      -0.96328305       0.00000000
Si      -1.81214847      -1.13635782      -1.02050608       0.00000000
Si       0.18678114      -2.36928276       0.73373636       0.00000000
Si       1.96180470      -1.66381173      -0.96879520       0.00000000
Si       0.66876966       3.04313490      -0.33114254       0.00000000
Si      -2.13780186       1.95828606       1.65044172       0.00000000
Si      -2.74352922       1.83990663      -0.72405564       0.00000000
Si       0.00744453      -0.95791716       3.35734855       0.00000000
Si      -2.05226307       0.09133803       3.16273512       0.00000000
Si      -1.20550887       3.13857801      -1.91488722       0.00000000
