10
Lattice="16.28999089631971 0.0 0.0 0.0 16.28999089631971 0.0 0.0 0.0 34.450931932916035" Properties=species:S:1:pos:R:3:initial_magmoms:R:1 pbc="T T T"
Si       2.19235707      -0.82981260      -0.20725692       0.00000000
Si      -0.84059658      -0.47236113       2.17388947       0.00000000
Si      -1.25804412      -1.17540495      -1.68024179       0.00000000
Si      -0.07530867       2.39541192      -0.45571718       0.00000000
Si      -2.37988755       2.50807356      -1.13395306       0.00000000
Si      -2.81549844       0.46318986      -2.34524850       0.00000000
Si       1.87721073       2.76175773      -1.82858759       0.00000000
Si       0.30139758       0.90249858       3.69644926       0.00000000
Si       2.66268195      -1.05301818      -2.54303141       0.00000000
Si      -2.34023769      -3.06172179      -0.66180277       0.00000000
