10
Lattice="16.28999089631971 0.0 0.0 0.0 16.28999089631971 0.0 0.0 0.0 34.450931932916035" Properties=species:S:1:pos:R:3:initial_magmoms:R:1 pbc="T T T"
Si      -1.87831845      -0.90184698       1.13030126       0.00000000
Si      -0.00376299       2.30713641       0.55379904       0.00000000
Si       1.70668701      -1.25136522       1.09047596       0.00000000
Si       0.25366788      -0.34744941      -2.37308487       0.00000000
Si       0.06371019       1.43255889       2.86228838       0.00000000
Si       0.79804710      -3.34945532       0.57529643       0.00000000
Si      -3.52137672      -0.30257046      -0.48761876       0.00000000
Si      -2.13451128       0.65520009       2.93945851       0.00000000
Si       1.68274071      -0.33607899       3.28930792       0.00000000
Si      -1.39359321      -3.19302734       1.58026513       0.00000000
