10
Lattice="16.28999089631971 0.0 0.0 0.0 16.28999089631971 0.0 0.0 0.0 34.450931932916035" Properties=species:S:1:pos:R:3:initial_magmoms:R:1 pbc="T T T"
Si      -2.19369285       0.27054432      -0.68447150       0.00000000
Si       0.82862343      -2.12512824       0.55111187       0.00000000
Si       0.88288542       0.56451366      -2.13637238       0.00000000
Si       0.06750576       0.48648456       2.89387990       0.00000000
Si      -0.95055408       2.53400724       1.85494256       0.00000000
Si       3.02684490      -1.34776944       0.47394174       0.00000000
Si      -2.41101774       2.43348165      -0.00857829       0.00000000
Si       2.95937172      -0.47319192      -1.83454760       0.00000000
Si       1.91945070      -1.39644396       2.78467038       0.00000000
Si      -3.50647137      -1.13399577       0.68533277       0.00000000
