10
Lattice="16.28999089631971 0.0 0.0 0.0 16.28999089631971 0.0 0.0 0.0 34.450931932916035" Properties=species:S:1:pos:R:3:initial_magmoms:R:1 pbc="T T T"
Si      -1.35428544       1.36459701      -1.31252612       0.00000000
Si       1.34265438       1.35334062       1.36591820       0.00000000
Si      -1.36865322      -1.36262592       1.36133623       0.00000000
Si       1.37679822      -1.31408172      -1.48785045       0.00000000
Si      -0.53279703      -2.17714221      -2.83900784       0.00000000
Si      -2.38474197      -0.29421369      -2.72979833       0.00000000
Si       0.09676260       2.54293416      -2.69065842       0.00000000
Si       2.70272277       2.68991883      -0.00610815       0.00000000
Si       2.69786835      -0.00184077       2.72021954       0.00000000
Si       2.69614161      -2.72544732      -0.01634353       0.00000000
