10
Lattice="16.28999089631971 0.0 0.0 0.0 16.28999089631971 0.0 0.0 0.0 34.450931932916035" Properties=species:S:1:pos:R:3:initial_magmoms:R:1 pbc="T T T"
Si      -1.39680234       0.52269723      -1.83144702       0.00000000
Si      -0.69569703       1.60826283       1.59876529       0.00000000
Si       2.35221084       0.31447845      -0.04416612       0.00000000
Si       0.08977419      -2.20651308       0.88432147       0.00000000
Si       1.04027940       1.71193239       3.15939338       0.00000000
Si      -2.25131058       2.70208746      -1.31044528       0.00000000
Si      -0.38055069      -1.98330750       3.22009596       0.00000000
Si       2.34652563      -2.82123252       0.99218739       0.00000000
Si       2.83586094       2.56849317       0.03469211       0.00000000
Si       3.02572089       0.42554367      -2.30680124       0.00000000
