10
Lattice="16.28999089631971 0.0 0.0 0.0 16.28999089631971 0.0 0.0 0.0 34.450931932916035" Properties=species:S:1:pos:R:3:initial_magmoms:R:1 pbc="T T T"
Si      -2.30457888       0.11266164      -0.67823588       0.00000000
Si       1.95251940       0.36634581      -1.37287040       0.00000000
Si       0.07530867      -2.39541192       0.45571718       0.00000000
Si       0.42357258       1.61824860       1.79654820       0.00000000
Si       3.68849583       0.47001537       0.18775768       0.00000000
Si      -3.42166563      -0.16088004       1.46361421       0.00000000
Si       2.75002893       1.75278771       1.86710375       0.00000000
Si       1.57069809       2.46034386      -2.40657120       0.00000000
Si      -2.74018977      -1.93222206      -1.88953132       0.00000000
Si       2.26766574      -3.22522452       0.24846026       0.00000000
