10
Lattice="16.28999089631971 0.0 0.0 0.0 16.28999089631971 0.0 0.0 0.0 34.450931932916035" Properties=species:S:1:pos:R:3:initial_magmoms:R:1 pbc="T T T"
Si       2.32645635       0.13453911       0.07055555       0.00000000
Si      -0.46884249      -0.73691073       2.20072676       0.00000000
Si      -0.77530626       2.24261172      -0.53071690       0.00000000
Si      -0.42357258      -1.61824860      -1.79654820       0.00000000
Si       0.24928587       2.49093648      -2.71618189       0.00000000
Si       1.52894682      -1.25190279      -3.16941861       0.00000000
Si      -2.64872142       0.05470182       2.70632892       0.00000000
Si       2.96899911       2.36174049       0.14486625       0.00000000
Si       3.26492325      -1.14823323      -1.60879052       0.00000000
Si      -3.16661310       2.26295793      -0.17552760       0.00000000
