10
Lattice="16.28999089631971 0.0 0.0 0.0 16.28999089631971 0.0 0.0 0.0 34.450931932916035" Properties=species:S:1:pos:R:3:initial_magmoms:R:1 pbc="T T T"
Si       1.76666679      -0.83403171       1.19917233       0.00000000
Si       0.86848506      -0.29308968      -2.16004019       0.00000000
Si      -1.73289762      -1.62365688       0.12109509       0.00000000
Si      -1.04673024       1.97291448       0.83302400       0.00000000
Si       0.62485182       1.99150137      -2.41201445       0.00000000
Si       0.31561875      -2.01236886       2.57730464       0.00000000
Si      -1.38113136       2.91542130      -1.41124876       0.00000000
Si      -2.45948049       0.74676618       2.50626678       0.00000000
Si       3.19116213      -0.72412308      -2.01441602       0.00000000
Si      -0.71483778      -3.67117956       1.16003243       0.00000000
