10
Lattice="16.28999089631971 0.0 0.0 0.0 16.28999089631971 0.0 0.0 0.0 34.450931932916035" Properties=species:S:1:pos:R:3:initial_magmoms:R:1 pbc="T T T"
Si      -1.18610748      -1.60293600       1.24316257       0.00000000
Si      -1.34607528       1.36925595      -1.46802393       0.00000000
Si       1.38111507      -1.34941473      -1.45672402       0.00000000
Si       0.93887415       1.86088815       1.34024535       0.00000000
Si       2.24847612      -0.20616624       1.68000063       0.00000000
Si      -1.48998114      -0.55943118       3.25220424       0.00000000
Si       2.62272258       2.69210169      -0.16154051       0.00000000
Si      -2.53395837       2.85574470       0.02659613       0.00000000
Si      -2.77066836      -2.72678310      -0.07727348       0.00000000
Si       2.78619273      -2.74844880       0.04557861       0.00000000
