10
Lattice="16.28999089631971 0.0 0.0 0.0 16.28999089631971 0.0 0.0 0.0 34.450931932916035" Properties=species:S:1:pos:R:3:initial_magmoms:R:1 pbc="T T T"
Si      -1.27221800       1.27869984      -1.45016800       0.00000000
Si      -1.37215715      -1.34257293       1.34641207       0.00000000
Si       1.34403975       1.37161800       1.34706664       0.00000000
Si       1.21176495      -1.51044138      -1.33075067       0.00000000
Si      -0.01245505      -2.70145215       2.70670788       0.00000000
Si       2.70320078       0.01506825       2.70622557       0.00000000
Si       2.69569109      -2.71427238      -0.00190514       0.00000000
Si      -2.72585615       2.70700704      -0.01989542       0.00000000
Si      -0.01395404       2.72906370       2.70626002       0.00000000
Si       2.69894909       2.73730644      -0.02581754       0.00000000
