10
Lattice="16.28999089631971 0.0 0.0 0.0 16.28999089631971 0.0 0.0 0.0 34.450931932916035" Properties=species:S:1:pos:R:3:initial_magmoms:R:1 pbc="T T T"
Si      -1.28003562       1.13425641      -1.60889387       0.00000000
Si       0.48542571      -2.05472286      -1.03004899       0.00000000
Si      -0.64384596       0.11376936       2.32736846       0.00000000
Si       1.56558303       1.93225368       0.04678439       0.00000000
Si       0.14281443       2.38475079       1.93500658       0.00000000
Si       3.16039032       0.24395904      -0.16736272       0.00000000
Si       2.42022159      -1.22232015      -2.00576883       0.00000000
Si      -3.05932716       1.94248054      -0.33227942       0.00000000
Si       0.33243003      -1.55442438      -3.36227503       0.00000000
Si       0.30850002      -3.67505658       0.64685106       0.00000000
