10
Lattice="16.28999089631971 0.0 0.0 0.0 16.28999089631971 0.0 0.0 0.0 34.450931932916035" Properties=species:S:1:pos:R:3:initial_magmoms:R:1 pbc="T T T"
Si      -2.15958159       0.91871202       0.46067812       0.00000000
Si       1.20321198       1.72518105       1.14208348       0.00000000
Si       1.09170693       0.32663568      -2.10939729       0.00000000
Si       0.30703392      -2.37923825       0.59176399       0.00000000
Si      -2.07660033      -1.13509046      -2.55402127       0.00000000
Si       1.74443094      -1.88495078      -2.50634115       0.00000000
Si      -3.49936893      -0.68259335      -0.66579908       0.00000000
Si       3.37921389       1.24469121       0.49922873       0.00000000
Si      -2.11411620       2.87800806      -0.89041928       0.00000000
Si      -2.36980404       1.18963101       2.85236650       0.00000000
