10
Lattice="16.28999089631971 0.0 0.0 0.0 16.28999089631971 0.0 0.0 0.0 34.450931932916035" Properties=species:S:1:pos:R:3:initial_magmoms:R:1 pbc="T T T"
Si       1.74387938       1.54932561       0.66373203       0.00000000
Si       0.65722235      -1.76275507       1.67690005       0.00000000
Si       0.52228397      -0.14465520      -2.55839654       0.00000000
Si      -2.02020435       0.83665440       1.59869639       0.00000000
Si       1.98457227      -2.88986948       0.07317382       0.00000000
Si      -2.73062754       2.42364249      -0.13859618       0.00000000
Si      -0.50859009       1.86932637      -3.14368375       0.00000000
Si       1.87841523      -0.46302370       3.22216443       0.00000000
Si       0.59974455       3.26094849       1.90466893       0.00000000
Si      -2.70668124       1.50835626      -2.33742814       0.00000000
