10
Lattice="16.28999089631971 0.0 0.0 0.0 16.28999089631971 0.0 0.0 0.0 34.450931932916035" Properties=species:S:1:pos:R:3:initial_magmoms:R:1 pbc="T T T"
Si       0.80425359       2.13627060      -0.51579964       0.00000000
Si      -1.82936700       1.03094523       1.07697119       0.00000000
Si       1.86835616      -1.11304683       0.92266537       0.00000000
Si      -0.82595187      -1.24517502      -1.84884475       0.00000000
Si       1.87393385       2.53438191       1.56913747       0.00000000
Si      -0.82026666       1.89053595      -2.88519826       0.00000000
Si      -3.55302819      -0.40725000       0.37906382       0.00000000
Si      -3.08270331      -0.63045558      -1.95671067       0.00000000
Si       2.43905187       1.81058463      -2.12810416       0.00000000
Si       3.28180688       0.65562363       1.68144757       0.00000000
