10
Lattice="16.28999089631971 0.0 0.0 0.0 16.28999089631971 0.0 0.0 0.0 34.450931932916035" Properties=species:S:1:pos:R:3:initial_magmoms:R:1 pbc="T T T"
Si      -1.80160884       0.20328291      -1.42347885       0.00000000
Si       0.83258190      -2.08454985       0.68674526       0.00000000
Si       1.49799633       1.54308654      -0.95835656       0.00000000
Si      -0.83339640       1.23484716       2.05871994       0.00000000
Si      -2.02180077       2.51437779      -0.98577952       0.00000000
Si       0.13219335       3.43666872      -0.82554814       0.00000000
Si       0.04777857      -2.00770992       2.94111215       0.00000000
Si      -3.45768282      -0.88383024      -0.23492104       0.00000000
Si       3.13653266      -1.86496065       0.77883265       0.00000000
Si       1.31465187       2.44778427       2.57713785       0.00000000
