10
Lattice="16.28999089631971 0.0 0.0 0.0 16.28999089631971 0.0 0.0 0.0 34.450931932916035" Properties=species:S:1:pos:R:3:initial_magmoms:R:1 pbc="T T T"
Si       1.80160884      -0.20328291       1.42347885       0.00000000
Si      -1.65607398      -1.08711315       1.18855782       0.00000000
Si      -0.11793960      -0.34352352      -2.31906578       0.00000000
Si      -0.22019193       2.31109488       0.43769933       0.00000000
Si       3.29960517       1.33980363       0.46512229       0.00000000
Si      -0.42077070       1.91352114      -3.07767572       0.00000000
Si      -1.35923760       3.19629348      -1.39832966       0.00000000
Si       0.96821244       1.03156425       3.48219879       0.00000000
Si       1.93380219       3.23338581       0.59793071       0.00000000
Si      -1.65231099      -3.39424956       0.63475878       0.00000000
