10
Lattice="16.28999089631971 0.0 0.0 0.0 16.28999089631971 0.0 0.0 0.0 34.450931932916035" Properties=species:S:1:pos:R:3:initial_magmoms:R:1 pbc="T T T"
Si      -0.93662613      -1.89788274       1.08902351       0.00000000
Si       0.18647163      -1.08177003      -2.12076270       0.00000000
Si       1.85269984       1.12298373       1.08849641       0.00000000
Si      -1.85683194       1.63188333      -0.13426948       0.00000000
Si       0.33842843       2.27986695       2.52781236       0.00000000
Si      -2.39026428      -0.46957554       2.51929609       0.00000000
Si      -0.65549331       0.75487860      -3.40798804       0.00000000
Si      -2.60921817       1.38122910      -2.32450562       0.00000000
Si      -0.94156200       3.63884391       1.07532581       0.00000000
Si       3.03454097      -0.43927614       2.51337397       0.00000000
