10
Lattice="16.28999089631971 0.0 0.0 0.0 16.28999089631971 0.0 0.0 0.0 34.450931932916035" Properties=species:S:1:pos:R:3:initial_magmoms:R:1 pbc="T T T"
Si       1.35417079       1.35845568      -1.36635917       0.00000000
Si      -1.35466011      -1.35584928      -1.36963202       0.00000000
Si       1.32566391      -1.33578000       1.47873818       0.00000000
Si      -1.30782636       1.31681844       1.51914914       0.00000000
Si       2.20783161       0.49008465       2.71008408       0.00000000
Si      -2.04926571      -0.50218812       2.93756371       0.00000000
Si       0.36447246       2.34836640       2.80447968       0.00000000
Si      -0.40936770      -2.34667224       2.93360185       0.00000000
Si      -2.71290402       2.71585251       0.01684652       0.00000000
Si      -2.70984150      -2.72541474       0.00844048       0.00000000
