10
Lattice="16.28999089631971 0.0 0.0 0.0 16.28999089631971 0.0 0.0 0.0 34.450931932916035" Properties=species:S:1:pos:R:3:initial_magmoms:R:1 pbc="T T T"
Si       1.63160640       0.78820794       1.43936074       0.00000000
Si      -0.07747524       1.35656604      -1.90947842       0.00000000
Si      -0.12983130      -2.39318019       0.24935598       0.00000000
Si      -1.72814094       1.33540533       1.01923139       0.00000000
Si       2.13254019      -0.15416856      -2.25856991       0.00000000
Si       3.53682357      -0.46540530       0.94409387       0.00000000
Si      -0.28119798      -3.00472308      -2.12548588       0.00000000
Si       0.46024137      -1.18571652      -3.54390045       0.00000000
Si       2.08845945       3.10357080       1.04128000       0.00000000
Si       0.99944037       0.62464005       3.75890883       0.00000000
