10
Lattice="16.28999089631971 0.0 0.0 0.0 16.28999089631971 0.0 0.0 0.0 34.450931932916035" Properties=species:S:1:pos:R:3:initial_magmoms:R:1 pbc="T T T"
Si       0.47729537      -2.28996675      -0.02321994       0.00000000
Si      -2.15061462       0.90046233      -0.40169809       0.00000000
Si       0.96454556       1.06396506       2.08535053       0.00000000
Si      -0.93206004       3.17777175      -0.55317892       0.00000000
Si       0.27691208      -2.55870288      -2.51498834       0.00000000
Si      -0.56802578       0.38724588       3.79549574       0.00000000
Si       3.27308291       0.50059170       2.07067442       0.00000000
Si      -3.62562525       0.19622934       1.54540077       0.00000000
Si       2.80777535      -2.77071723       0.34268361       0.00000000
Si       3.81438332       1.24864479      -0.21900470       0.00000000
