10
Lattice="16.28999089631971 0.0 0.0 0.0 16.28999089631971 0.0 0.0 0.0 34.450931932916035" Properties=species:S:1:pos:R:3:initial_magmoms:R:1 pbc="T T T"
Si       1.35563751      -1.35474156      -1.35933118       0.00000000
Si       1.35635427       1.33897284       1.37517862       0.00000000
Si      -1.35910728       1.36018242      -1.35802204       0.00000000
Si      -1.35604476      -1.35720135       1.38713310       0.00000000
Si      -0.11443725       2.68431507       2.68231661       0.00000000
Si       2.71103005      -2.71459818       0.00392741       0.00000000
Si      -2.71604799      -2.71158453       0.00196370       0.00000000
Si      -0.00109143      -2.71336014      -2.71566513       0.00000000
Si       2.71348005       0.00203625      -2.71600964       0.00000000
Si      -2.71645524       2.71397634      -0.00082682       0.00000000
