10
Lattice="16.28999089631971 0.0 0.0 0.0 16.28999089631971 0.0 0.0 0.0 34.450931932916035" Properties=species:S:1:pos:R:3:initial_magmoms:R:1 pbc="T T T"
Si      -1.26332208       1.41381303      -1.33383748       0.00000000
Si       1.47079152      -1.34534223      -1.30713799       0.00000000
Si      -1.68384843      -0.83121354       1.50178586       0.00000000
Si       1.98265590       0.71130352       1.23155260       0.00000000
Si      -0.66829725       1.70415296       1.79024368       0.00000000
Si       0.44421201       0.05189963       3.00660341       0.00000000
Si      -0.37424646      -2.89826793       1.84154114       0.00000000
Si      -2.60201799       0.02966127      -2.68314343       0.00000000
Si      -2.59475265       2.69940680       0.21259682       0.00000000
Si      -2.62272258      -2.69210169       0.16154051       0.00000000
