10
Lattice="16.28999089631971 0.0 0.0 0.0 16.28999089631971 0.0 0.0 0.0 34.450931932916035" Properties=species:S:1:pos:R:3:initial_magmoms:R:1 pbc="T T T"
Si       2.32703369      -0.31208382      -0.41913027       0.00000000
Si      -0.41200668       1.91181069      -1.38992363       0.00000000
Si      -0.94382631       0.13005936       2.20527429       0.00000000
Si      -1.08378999      -2.00705832      -0.85366012       0.00000000
Si       2.64058361      -2.08756350       1.11286908       0.00000000
Si      -3.32169390       0.45471906       1.73870506       0.00000000
Si      -0.01501938       1.31632974      -3.62351659       0.00000000
Si       2.64406967      -1.02280023      -2.69268634       0.00000000
Si       3.57123131       1.73993490      -0.13690808       0.00000000
Si      -1.23018822      -2.19869388      -3.13965299       0.00000000
