10
Lattice="16.28999089631971 0.0 0.0 0.0 16.28999089631971 0.0 0.0 0.0 34.450931932916035" Properties=species:S:1:pos:R:3:initial_magmoms:R:1 pbc="T T T"
Si      -2.30395076      -0.21958920      -0.09208739       0.00000000
Si       0.98155395       1.10856708      -1.81518617       0.00000000
Si       0.98300376      -2.04993360       0.65301778       0.00000000
Si       1.03759155       1.38362373       1.64300031       0.00000000
Si       3.22993233       0.32032656       1.50612668       0.00000000
Si       0.64369935       3.37647717      -1.05144303       0.00000000
Si      -0.43320486      -2.53640187       2.52408339       0.00000000
Si      -2.68567433      -2.21640111      -1.28333238       0.00000000
Si      -3.13653266       1.86496065      -0.77883265       0.00000000
Si      -3.08875409      -0.14274927       2.16227950       0.00000000
