10
Lattice="16.28999089631971 0.0 0.0 0.0 16.28999089631971 0.0 0.0 0.0 34.450931932916035" Properties=species:S:1:pos:R:3:initial_magmoms:R:1 pbc="T T T"
Si       1.34110219       1.34465805       1.36395794       0.00000000
Si      -1.27999043       1.35897696      -1.45248655       0.00000000
Si      -1.37359277      -1.37409408       1.35527630       0.00000000
Si       1.51427140      -1.15688322      -1.43931595       0.00000000
Si      -0.33842843      -2.27986695      -2.52781236       0.00000000
Si      -2.19526037      -0.64798362      -2.66208184       0.00000000
Si       2.69233325       2.69998353      -0.00093018       0.00000000
Si       2.69611253      -2.71914309      -0.01443839       0.00000000
Si       2.69788814      -0.01115865       2.71825929       0.00000000
Si      -0.01431031       2.70259346       2.71939617       0.00000000
