10
Lattice="16.28999089631971 0.0 0.0 0.0 16.28999089631971 0.0 0.0 0.0 34.450931932916035" Properties=species:S:1:pos:R:3:initial_magmoms:R:1 pbc="T T T"
Si      -1.35784254      -1.35677781       1.35667846       0.00000000
Si      -1.35689772       1.35791811      -1.35695407       0.00000000
Si       1.35772394      -1.35716877      -1.35760863       0.00000000
Si       1.35760502       1.35821133       1.35753973       0.00000000
Si       2.71318226      -0.00127062       2.71473495       0.00000000
Si       2.71391531       0.00141723      -2.71476940       0.00000000
Si       0.00171686       2.71516934      -2.71363252       0.00000000
Si       2.71479497      -2.71464705       0.00010335       0.00000000
Si      -2.71348005      -0.00203625       2.71600964       0.00000000
Si      -2.71453890       0.00089595      -2.71504501       0.00000000
