10
Lattice="16.28999089631971 0.0 0.0 0.0 16.28999089631971 0.0 0.0 0.0 34.450931932916035" Properties=species:S:1:pos:R:3:initial_magmoms:R:1 pbc="T T T"
Si       0.31354992      -1.77547968       1.53199935       0.00000000
Si      -2.32703369       0.31208382       0.41913027       0.00000000
Si       0.31703598      -0.71071641      -2.27355607       0.00000000
Si       1.24419762       2.05201872       0.28222219       0.00000000
Si      -2.73904037       2.22389451      -0.97079335       0.00000000
Si      -3.41082368      -1.69497450      -0.43452985       0.00000000
Si      -0.17321972       0.97454925      -3.82622599       0.00000000
Si      -1.29519347      -2.18825199      -3.05318110       0.00000000
Si       3.58156827       1.82482209      -0.00303168       0.00000000
Si       0.82995921       3.70707199      -1.40801037       0.00000000
