10
Lattice="16.28999089631971 0.0 0.0 0.0 16.28999089631971 0.0 0.0 0.0 34.25627252547053" Properties=species:S:1:pos:R:3:initial_magmoms:R:1 pbc="T T T"
Si      -1.29477367       1.32153765       1.38282373       0.00000000
Si       1.33705062       1.35296106      -1.34788231       0.00000000
Si       1.42268715      -1.30089138       1.34562139       0.00000000
Si      -1.37978648      -1.36357204      -1.34291515       0.00000000
Si      -2.06396648      -0.65918462       2.51115746       0.00000000
Si      -0.28308762      -2.28815434       2.53150570       0.00000000
Si       2.69309538       2.69499642       0.05340556       0.00000000
Si       2.69242749      -0.00253635      -2.70217054       0.00000000
Si      -0.02139529       2.70911985      -2.70302695       0.00000000
Si      -0.02193448      -2.71886194      -2.70398613       0.00000000
