10
Lattice="16.28999089631971 0.0 0.0 0.0 16.28999089631971 0.0 0.0 0.0 34.25627252547053" Properties=species:S:1:pos:R:3:initial_magmoms:R:1 pbc="T T T"
Si      -1.54790512       1.72125027       0.55460936       0.00000000
Si       1.65348387       1.40600619       0.98418326       0.00000000
Si       0.75254913      -0.45452358      -2.24166321       0.00000000
Si      -0.63750915      -1.89133416       1.35699448       0.00000000
Si       1.04257629       1.64566467       3.20734808       0.00000000
Si      -1.20862352       2.13754122       2.84690338       0.00000000
Si      -0.69706539       3.74017001      -0.34174077       0.00000000
Si       1.17327096      -2.34913203       2.77993233       0.00000000
Si       3.01602834      -1.17056682      -2.04486082       0.00000000
Si       0.55214955       1.58182416      -3.54799264       0.00000000
