10
Lattice="16.28999089631971 0.0 0.0 0.0 16.28999089631971 0.0 0.0 0.0 34.25627252547053" Properties=species:S:1:pos:R:3:initial_magmoms:R:1 pbc="T T T"
Si      -2.29049847      -0.38760426      -0.25637409       0.00000000
Si       0.33928160       0.41629095       2.29229401       0.00000000
Si       0.85083973       2.01891974      -0.89635013       0.00000000
Si       1.54790512      -1.72125027      -0.55460936       0.00000000
Si       3.20138899      -0.31524408       0.42957390       0.00000000
Si       3.12704143       1.98325116      -0.04477297       0.00000000
Si       2.59048141      -0.07558560       2.65273871       0.00000000
Si       0.71594550       1.64662319      -3.25099059       0.00000000
Si      -2.67280848      -0.27318330      -2.59707224       0.00000000
Si      -3.44668122       1.28280492       0.90001555       0.00000000
