10
Lattice="16.28999089631971 0.0 0.0 0.0 16.28999089631971 0.0 0.0 0.0 34.25627252547053" Properties=species:S:1:pos:R:3:initial_magmoms:R:1 pbc="T T T"
Si      -1.83495447      -0.45843318       1.29536741       0.00000000
Si      -0.45265023      -1.88815761      -1.29971796       0.00000000
Si       1.91381436      -0.77514336       1.12412021       0.00000000
Si      -0.58334490       2.10663909      -0.87230221       0.00000000
Si      -1.09685457      -2.97007425       0.74788336       0.00000000
Si       2.91476970      -0.19376955      -1.70795019       0.00000000
Si      -0.85711464       0.11350872       3.35676001       0.00000000
Si       2.64663630       1.58161239       1.66417065       0.00000000
Si       1.69689672      -2.11266639      -2.36166300       0.00000000
Si      -3.50351473       0.82223775       0.15631146       0.00000000
