10
Lattice="16.28999089631971 0.0 0.0 0.0 16.28999089631971 0.0 0.0 0.0 34.25627252547053" Properties=species:S:1:pos:R:3:initial_magmoms:R:1 pbc="T T T"
Si       1.40247126      -1.15308765      -1.44900688       0.00000000
Si       1.34262180       1.19112480       1.53266075       0.00000000
Si      -0.63241038      -1.87016693       1.41708002       0.00000000
Si       0.01402569       1.95418098      -1.67948321       0.00000000
Si      -2.35038636       0.76548339      -1.26179625       0.00000000
Si      -2.17456839      -0.61468686       2.67034645       0.00000000
Si      -1.96546995       1.82917152       2.36543120       0.00000000
Si       1.25631738      -0.09304848       3.49780717       0.00000000
Si       3.27920958       0.39537459      -1.75827268       0.00000000
Si       0.17010018       3.08177478       2.19747260       0.00000000
