10
Lattice="16.28999089631971 0.0 0.0 0.0 16.28999089631971 0.0 0.0 0.0 34.25627252547053" Properties=species:S:1:pos:R:3:initial_magmoms:R:1 pbc="T T T"
Si       0.27616437       0.72386244       2.21225902       0.00000000
Si       1.26493479      -1.92261422      -0.53518604       0.00000000
Si      -2.27615283      -0.31594455       0.56002186       0.00000000
Si       1.21295340       2.31974487       0.66734682       0.00000000
Si      -2.07337491      -1.23474942      -1.62422781       0.00000000
Si      -0.23175783      -2.73457135      -2.10117816       0.00000000
Si       3.18096459       1.46497599      -0.75230242       0.00000000
Si      -1.78619850       0.70366284      -3.22468176       0.00000000
Si       3.69157464      -0.69326982       0.66957348       0.00000000
Si       1.33066494      -0.82899810       3.62449178       0.00000000
