10
Lattice="16.28999089631971 0.0 0.0 0.0 16.28999089631971 0.0 0.0 0.0 34.25627252547053" Properties=species:S:1:pos:R:3:initial_magmoms:R:1 pbc="T T T"
Si       1.35804843      -1.35553977       1.35843325       0.00000000
Si      -1.35715248       1.35979146       1.35860453       0.00000000
Si      -1.33604064      -1.36256076      -1.37772639       0.00000000
Si       1.36081773       1.36519974      -1.36727822       0.00000000
Si       0.31899078      -2.53236195      -2.78499541       0.00000000
Si      -2.60275919      -0.00604359      -2.80302792       0.00000000
Si       2.71565703      -2.70990666      -0.00181558       0.00000000
Si       0.00052128      -2.71221984       2.71553050       0.00000000
Si      -2.71289588       0.00167787       2.71546198       0.00000000
Si      -2.71142489      -2.71770957       0.00191835       0.00000000
