10
Lattice="16.28999089631971 0.0 0.0 0.0 16.28999089631971 0.0 0.0 0.0 34.25627252547053" Properties=species:S:1:pos:R:3:initial_magmoms:R:1 pbc="T T T"
Si      -1.35752715      -1.35668007       1.35709725       0.00000000
Si      -1.35804843       1.35553977      -1.35843325       0.00000000
Si       1.35760860      -1.35436689      -1.36024883       0.00000000
Si       1.35775521       1.35791811       1.35723428       0.00000000
Si       2.71476108       2.71347417       0.00065087       0.00000000
Si      -2.71528236      -2.71393029       0.00095918       0.00000000
Si      -2.71495656       0.00066789       2.71426301       0.00000000
Si       0.00055386      -2.71490769       2.71460558       0.00000000
Si       2.71621089      -2.71345788      -0.00082215       0.00000000
Si       0.00003258       2.71541268       2.71453706       0.00000000
