10
Lattice="16.28999089631971 0.0 0.0 0.0 16.28999089631971 0.0 0.0 0.0 34.25627252547053" Properties=species:S:1:pos:R:3:initial_magmoms:R:1 pbc="T T T"
Si       1.35715248       1.35742941      -1.35829622       0.00000000
Si      -1.36098063       1.35637056       1.35661766       0.00000000
Si      -1.35801585      -1.35795069      -1.35802217       0.00000000
Si       1.35971001      -1.36042677       1.35822771       0.00000000
Si      -0.01154961      -2.70239697       2.72625272       0.00000000
Si       2.71572219       2.71329498      -0.00095918       0.00000000
Si      -2.71477737       2.71448415      -0.00054810       0.00000000
Si       2.71443528      -0.00053757      -2.71511942       0.00000000
Si      -0.00003258       2.71443528      -2.71532496       0.00000000
Si      -2.71536381      -0.00084708      -2.71518793       0.00000000
