10
Lattice="16.28999089631971 0.0 0.0 0.0 16.28999089631971 0.0 0.0 0.0 34.25627252547053" Properties=species:S:1:pos:R:3:initial_magmoms:R:1 pbc="T T T"
Si      -1.35379674       1.35811359      -1.35716576       0.00000000
Si       1.36098063      -1.35637056      -1.35661766       0.00000000
Si      -1.35728280      -1.33993395       1.37840466       0.00000000
Si       1.35433431       1.37067318       1.37223853       0.00000000
Si       2.65593789      -0.05128092       2.74451132       0.00000000
Si       0.02562417      -2.60420085       2.81364052       0.00000000
Si      -2.70930393      -2.71425609       0.00486439       0.00000000
Si      -2.71150308       0.00071676      -2.71443430       0.00000000
Si      -2.71094922       2.71702539       0.00274050       0.00000000
Si       0.00296478      -2.71432125      -2.71463983       0.00000000
