10
Lattice="16.28999089631971 0.0 0.0 0.0 16.28999089631971 0.0 0.0 0.0 34.25627252547053" Properties=species:S:1:pos:R:3:initial_magmoms:R:1 pbc="T T T"
Si      -0.35904789       1.25113716       2.01906583       0.00000000
Si       0.45903591       0.02938716      -2.37553680       0.00000000
Si      -0.62050239      -2.25447084       0.68594798       0.00000000
Si      -0.61294383       2.41219062      -1.71922051       0.00000000
Si       1.58262237       2.53946439      -0.57125792       0.00000000
Si      -1.65682332      -1.17514431      -2.75653528       0.00000000
Si       0.93933027      -0.20026926       3.40774738       0.00000000
Si      -0.44641116      -2.00498949       2.97700877       0.00000000
Si      -3.49080039      -0.68844798      -1.27303231       0.00000000
Si      -2.66823684       1.05155208       2.52602469       0.00000000
