10
Lattice="16.28999089631971 0.0 0.0 0.0 16.28999089631971 0.0 0.0 0.0 34.25627252547053" Properties=species:S:1:pos:R:3:initial_magmoms:R:1 pbc="T T T"
Si       1.35379674      -1.35811359       1.35716576       0.00000000
Si      -1.35770634      -1.35739683      -1.35726853       0.00000000
Si       1.35689184       1.35796698      -1.35761110       0.00000000
Si      -1.35715248       1.35891180       1.35990627       0.00000000
Si       2.71480995       2.71402803       0.00065087       0.00000000
Si       2.71477737      -2.71448415       0.00054810       0.00000000
Si       2.71474479      -0.00004887      -2.71477686       0.00000000
Si      -0.00024435       2.71500543      -2.71494814       0.00000000
Si      -0.00058644      -2.71533123      -2.71463983       0.00000000
Si      -2.71570427      -0.00008145      -2.71470835       0.00000000
