10
Lattice="16.28999089631971 0.0 0.0 0.0 16.28999089631971 0.0 0.0 0.0 34.25627252547053" Properties=species:S:1:pos:R:3:initial_magmoms:R:1 pbc="T T T"
Si      -1.10338686      -1.51537725       1.43684590       0.00000000
Si       1.01735937       1.69663608       1.29821069       0.00000000
Si       1.32317154      -1.35257499      -1.48507876       0.00000000
Si      -1.37868786       1.33449309      -1.48278358       0.00000000
Si       0.57523248      -3.07550313       1.26758556       0.00000000
Si       0.21540267      -0.80743014       3.36482425       0.00000000
Si      -0.60123132       3.41089861       1.55766784       0.00000000
Si       2.62477512      -2.77452909      -0.11280597       0.00000000
Si      -2.65623111       2.76865591      -0.16562917       0.00000000
Si      -2.72197755      -2.74771575       0.08454453       0.00000000
