10
Lattice="16.28999089631971 0.0 0.0 0.0 16.28999089631971 0.0 0.0 0.0 34.25627252547053" Properties=species:S:1:pos:R:3:initial_magmoms:R:1 pbc="T T T"
Si       0.37260117       2.18702765       0.91454022       0.00000000
Si       2.29765563      -0.33488982      -0.61332465       0.00000000
Si      -0.64164681      -1.95274746       1.31996343       0.00000000
Si      -1.26591219       0.86727960      -2.31853433       0.00000000
Si       1.52671509      -2.38843980      -1.85895192       0.00000000
Si       1.41452586      -1.86225651       2.59953869       0.00000000
Si       2.14340562       1.69155753       2.33949918       0.00000000
Si      -2.47938687       2.61041616      -1.11579593       0.00000000
Si       3.16925208      -1.90974186       0.96599317       0.00000000
Si      -2.42947431      -1.19361717       2.75619272       0.00000000
