10
Lattice="16.28999089631971 0.0 0.0 0.0 16.28999089631971 0.0 0.0 0.0 34.25627252547053" Properties=species:S:1:pos:R:3:initial_magmoms:R:1 pbc="T T T"
Si      -1.47387033      -1.10376153       1.49288919       0.00000000
Si       0.82181421      -2.17983006      -0.56745547       0.00000000
Si       0.78320691       1.80663009       1.57071949       0.00000000
Si      -0.96106113       0.80324361      -2.24560269       0.00000000
Si       2.55293622       2.45631113       0.18611443       0.00000000
Si       0.16428465      -2.13324066       2.87650081       0.00000000
Si      -1.20573693      -2.87914347      -1.87923165       0.00000000
Si       2.66054796      -1.71383832      -1.93273998       0.00000000
Si      -2.48409468       0.56780424       2.87581569       0.00000000
Si       2.27410029       2.29258034      -2.14177187       0.00000000
