10
Lattice="16.28999089631971 0.0 0.0 0.0 16.28999089631971 0.0 0.0 0.0 34.25627252547053" Properties=species:S:1:pos:R:3:initial_magmoms:R:1 pbc="T T T"
Si      -1.33050204      -1.37919352      -1.34771788       0.00000000
Si       1.35422028      -1.35781188       1.35785089       0.00000000
Si      -1.35936792       1.36010749       1.35654915       0.00000000
Si       1.35791811       1.35761512      -1.37060451       0.00000000
Si      -0.12673620       2.59396096      -2.75902571       0.00000000
Si       2.71125873      -2.71034716       0.00376819       0.00000000
Si      -2.70482418      -0.10385201      -2.71704463       0.00000000
Si       2.71241532       0.00115496       2.71474260       0.00000000
Si      -0.00285075      -2.71349113       2.71474260       0.00000000
Si       2.71158453       2.71690159      -0.00325435       0.00000000
