10
Lattice="16.28999089631971 0.0 0.0 0.0 16.28999089631971 0.0 0.0 0.0 34.25627252547053" Properties=species:S:1:pos:R:3:initial_magmoms:R:1 pbc="T T T"
Si      -1.13717232      -1.55937786       1.31844136       0.00000000
Si       1.56017475       1.23403527       1.27828613       0.00000000
Si       1.41105609      -0.32591535      -1.87671632       0.00000000
Si      -1.80328671       0.85102479      -1.34488739       0.00000000
Si      -0.03355740       1.50070582      -2.72949244       0.00000000
Si      -2.49833214      -0.16568691       2.71952711       0.00000000
Si       0.19008801       2.57112172       2.69664048       0.00000000
Si      -2.42220897      -3.08884596      -0.03910606       0.00000000
Si      -2.86705629       2.69311753      -0.26149791       0.00000000
Si       3.27906297       2.18563516      -0.14588292       0.00000000
