10
Lattice="16.28999089631971 0.0 0.0 0.0 16.28999089631971 0.0 0.0 0.0 34.25627252547053" Properties=species:S:1:pos:R:3:initial_magmoms:R:1 pbc="T T T"
Si      -1.35651717       1.35694071      -1.35730279       0.00000000
Si       1.35707103       1.35711990       1.35812494       0.00000000
Si      -1.35847197      -1.35711501       1.35678894       0.00000000
Si       1.35832536      -1.35804028      -1.35726853       0.00000000
Si      -2.71406061      -0.00122175       2.71217338       0.00000000
Si      -2.71407690       2.71435383      -0.00023979       0.00000000
Si      -2.71345788       0.00091224      -2.71546198       0.00000000
Si       2.71391400      -0.00197109      -2.71515368       0.00000000
Si      -2.71423980      -2.71521181       0.00017128       0.00000000
Si       0.00037467       2.71578735      -2.71474260       0.00000000
