10
Lattice="16.28999089631971 0.0 0.0 0.0 16.28999089631971 0.0 0.0 0.0 34.25627252547053" Properties=species:S:1:pos:R:3:initial_magmoms:R:1 pbc="T T T"
Si       1.34447886       1.34397387       1.36823055       0.00000000
Si       1.35558864      -1.35589326      -1.35538444       0.00000000
Si      -1.35692442       1.35754344      -1.35538444       0.00000000
Si      -1.34182359      -1.35659373       1.38193306       0.00000000
Si      -0.07020990       2.67898824       2.71056333       0.00000000
Si      -0.00017919      -2.71399006      -2.71200210       0.00000000
Si       2.71406061       0.00122175      -2.71217338       0.00000000
Si      -2.71505430       0.00068418      -2.71220764       0.00000000
Si      -0.00001629       2.71557558      -2.71241317       0.00000000
Si      -2.71176372      -2.71669663       0.00561803       0.00000000
