10
Lattice="16.28999089631971 0.0 0.0 0.0 16.28999089631971 0.0 0.0 0.0 34.25627252547053" Properties=species:S:1:pos:R:3:initial_magmoms:R:1 pbc="T T T"
Si      -1.75503573      -1.11548693       1.15902737       0.00000000
Si      -1.42684110       1.25270019      -1.61693122       0.00000000
Si       1.25491644      -1.44192224      -1.61323154       0.00000000
Si       1.61722233       1.25179935       1.55396816       0.00000000
Si       1.16146071      -1.01466812       2.27406967       0.00000000
Si       2.57443902       2.61730860      -0.14603457       0.00000000
Si      -2.74936104       2.46424776      -0.07550087       0.00000000
Si      -3.37362642       0.59877560       1.41848453       0.00000000
Si       2.59305849      -2.85213125      -0.25568896       0.00000000
Si      -1.67622471       1.67299359       3.13304618       0.00000000
