10
Lattice="16.28999089631971 0.0 0.0 0.0 16.28999089631971 0.0 0.0 0.0 34.25627252547053" Properties=species:S:1:pos:R:3:initial_magmoms:R:1 pbc="T T T"
Si      -1.23999480       1.42954524       1.47248614       0.00000000
Si       1.48498011      -1.26449496       1.44562921       0.00000000
Si      -1.47913200      -1.36726857      -1.37839237       0.00000000
Si       0.76108509       2.02973400      -1.16422371       0.00000000
Si       0.47066697       0.53897094      -3.42691861       0.00000000
Si      -2.61982296       2.80096776       0.12976283       0.00000000
Si      -2.59035435       0.09526392       2.83833245       0.00000000
Si      -2.71445157      -2.74344777       0.07793649       0.00000000
Si       0.12386916      -2.62050714       2.83370785       0.00000000
Si       2.71686249       2.76947919       0.12754645       0.00000000
