10
Lattice="16.28999089631971 0.0 0.0 0.0 16.28999089631971 0.0 0.0 0.0 34.25627252547053" Properties=species:S:1:pos:R:3:initial_magmoms:R:1 pbc="T T T"
Si       1.49669262       0.81195713       1.56599212       0.00000000
Si       1.40066307       0.68319283      -1.74186392       0.00000000
Si      -1.84161708       1.49982193       0.47695035       0.00000000
Si      -0.49995639      -2.18615614      -0.92694100       0.00000000
Si       0.23175783       2.73457135       2.10117816       0.00000000
Si      -2.75115620      -1.69427959      -1.28738570       0.00000000
Si       1.71980046      -1.03961707       2.99245836       0.00000000
Si       0.03660363      -0.12731938      -3.62445268       0.00000000
Si      -3.66935834       0.36899619      -0.55700730       0.00000000
Si      -1.55444067       3.43823419      -1.12350360       0.00000000
