10
Lattice="16.28999089631971 0.0 0.0 0.0 16.28999089631971 0.0 0.0 0.0 34.25627252547053" Properties=species:S:1:pos:R:3:initial_magmoms:R:1 pbc="T T T"
Si       0.20129553       0.20465127       2.36433499       0.00000000
Si       2.06988885      -1.07970120      -0.52542300       0.00000000
Si      -1.49156127      -1.84854033      -0.41121253       0.00000000
Si       1.35519768       3.04173396      -0.80670141       0.00000000
Si       1.89345186      -2.82791142       1.10404602       0.00000000
Si      -0.34779150      -3.50233371       0.85260484       0.00000000
Si       1.70888616       3.04785900       1.50761940       0.00000000
Si       2.39342454       1.15579179       2.81542184       0.00000000
Si      -0.28031832      -1.62496008       3.71420417       0.00000000
Si      -0.93846690       1.82311164       3.57019072       0.00000000
