10
Lattice="16.28999089631971 0.0 0.0 0.0 16.28999089631971 0.0 0.0 0.0 34.25627252547053" Properties=species:S:1:pos:R:3:initial_magmoms:R:1 pbc="T T T"
Si       2.01978081      -1.09535589      -0.23849230       0.00000000
Si      -0.28494468       0.72843993       2.17681605       0.00000000
Si       0.48161385       1.82961135      -1.34986917       0.00000000
Si      -1.23378831      -1.79416431      -0.82225377       0.00000000
Si       1.07421147      -1.10102481       2.88297525       0.00000000
Si      -0.06747318      -1.87737363      -2.86159932       0.00000000
Si      -2.55564036       0.24588126       2.36378689       0.00000000
Si      -0.65814858       3.44807172      -0.14401345       0.00000000
Si       2.17377018      -1.20295134      -2.61015814       0.00000000
Si       0.31799709       3.05706285       2.07315652       0.00000000
