10
Lattice="16.28999089631971 0.0 0.0 0.0 16.28999089631971 0.0 0.0 0.0 34.25627252547053" Properties=species:S:1:pos:R:3:initial_magmoms:R:1 pbc="T T T"
Si       1.35171162       1.35604476      -1.33609472       0.00000000
Si       1.35438318      -1.35627282       1.35737130       0.00000000
Si      -1.35992178       1.35641943       1.35668618       0.00000000
Si      -1.36689390      -1.37935575      -1.36444180       0.00000000
Si       2.58996339      -0.03942180      -2.70938149       0.00000000
Si      -0.02713914       2.68534134      -2.65397194       0.00000000
Si       2.71088406       2.71529865       0.00250071       0.00000000
Si       2.71239903       0.00035838       2.71532496       0.00000000
Si      -0.00239463      -2.71489140       2.71484537       0.00000000
Si       2.71337643      -2.71639008      -0.00397373       0.00000000
