10
Lattice="16.28999089631971 0.0 0.0 0.0 16.28999089631971 0.0 0.0 0.0 34.25627252547053" Properties=species:S:1:pos:R:3:initial_magmoms:R:1 pbc="T T T"
Si      -0.33705639      -1.77621273       1.49155320       0.00000000
Si      -0.79967610       1.90288377       1.22925277       0.00000000
Si       2.31029667      -0.55146537      -0.57101813       0.00000000
Si      -2.03739030       1.14815178      -2.17948804       0.00000000
Si       0.80270604      -3.39467310       0.28569747       0.00000000
Si       1.95660819      -0.55759041      -2.88533893       0.00000000
Si      -2.68068240      -1.59158187       1.79951726       0.00000000
Si       1.96807635       2.97685089      -0.93947880       0.00000000
Si      -0.26151966       3.67761411      -0.24534356       0.00000000
Si       3.45022200       1.39382127       0.04031966       0.00000000
