10
Lattice="16.28999089631971 0.0 0.0 0.0 16.28999089631971 0.0 0.0 0.0 34.25627252547053" Properties=species:S:1:pos:R:3:initial_magmoms:R:1 pbc="T T T"
Si      -2.17147329      -0.67422681      -0.52079840       0.00000000
Si       0.14771772       0.53729307       2.28355866       0.00000000
Si       1.11865059      -1.89982125      -0.86606757       0.00000000
Si       0.58657032       2.03264991      -1.13169085       0.00000000
Si       0.14250492      -1.50881238      -3.08323753       0.00000000
Si       0.07858296       2.91335247       2.23155761       0.00000000
Si      -2.20112109      -1.32418152      -2.77527347       0.00000000
Si      -3.76525431       0.78073083       0.39689340       0.00000000
Si      -1.77692949      -0.21354561       3.45015667       0.00000000
Si       3.39125220      -1.90571823      -0.08293448       0.00000000
