10
Lattice="16.28999089631971 0.0 0.0 0.0 16.28999089631971 0.0 0.0 0.0 34.25627252547053" Properties=species:S:1:pos:R:3:initial_magmoms:R:1 pbc="T T T"
Si       1.88198370      -0.72728334      -1.40765954       0.00000000
Si      -2.01077244      -1.42780221      -0.26610287       0.00000000
Si      -0.56211903       1.85272686      -1.59678852       0.00000000
Si       1.60357131      -0.88255962       1.97119270       0.00000000
Si      -1.21964859       1.89931626       1.84716776       0.00000000
Si      -3.59062551       0.57203964      -0.07649430       0.00000000
Si      -1.50412086      -2.90914965       1.68695108       0.00000000
Si       0.00262269      -1.94994558       3.24631944       0.00000000
Si       3.07250577       1.23821919      -2.02937697       0.00000000
Si       1.27661472       2.31871860      -2.96207303       0.00000000
