10
Lattice="16.28999089631971 0.0 0.0 0.0 16.28999089631971 0.0 0.0 0.0 34.25627252547053" Properties=species:S:1:pos:R:3:initial_magmoms:R:1 pbc="T T T"
Si      -1.37432214       1.27534151      -1.36932675       0.00000000
Si       1.33050204       1.37919352       1.34771788       0.00000000
Si      -1.38829896      -1.33516098       1.35008156       0.00000000
Si       1.36115982      -1.39369095      -1.40108575       0.00000000
Si       2.49833214       0.16568691      -2.71952711       0.00000000
Si      -2.57225616      -0.22211415      -2.75931830       0.00000000
Si       2.68659567      -2.68594407       0.00351812       0.00000000
Si       2.68472232       0.02138164       2.70556877       0.00000000
Si      -0.03052746      -2.69053785       2.70478087       0.00000000
Si      -2.73556341      -2.68454313      -0.01025633       0.00000000
