10
Lattice="16.28999089631971 0.0 0.0 0.0 16.28999089631971 0.0 0.0 0.0 34.25627252547053" Properties=species:S:1:pos:R:3:initial_magmoms:R:1 pbc="T T T"
Si      -1.35477414       1.35593073      -1.35887858       0.00000000
Si      -1.36145304      -1.34553771       1.36987485       0.00000000
Si       1.36091547      -1.35928647      -1.35994052       0.00000000
Si       1.34268696       1.37723805       1.38090537       0.00000000
Si       2.68082901      -0.03297096       2.73844796       0.00000000
Si      -2.70901071       2.71175758       0.00089066       0.00000000
Si      -2.71269225      -0.00013032      -2.71714054       0.00000000
Si       2.71832859       2.71275741       0.00369968       0.00000000
Si       0.00257382       2.71446415      -2.71672947       0.00000000
Si      -2.71578735      -2.71621089      -0.00236368       0.00000000
