10
Lattice="16.28999089631971 0.0 0.0 0.0 16.28999089631971 0.0 0.0 0.0 34.25627252547053" Properties=species:S:1:pos:R:3:initial_magmoms:R:1 pbc="T T T"
Si       1.37564163       1.33551936      -1.37720569       0.00000000
Si      -1.34268696      -1.37723805      -1.38090537       0.00000000
Si       1.33814205      -1.41020901       1.35754258       0.00000000
Si      -1.25491644       1.44192224       1.61323154       0.00000000
Si      -2.68175754       2.69462242      -0.00369968       0.00000000
Si      -2.70414000      -2.72277576      -0.01103053       0.00000000
Si       2.73416247       2.70007306       0.00835854       0.00000000
Si       0.01565469       2.69532289      -2.74101718       0.00000000
Si      -2.69746110      -0.02130732      -2.73978395       0.00000000
Si       2.71538010      -2.74497903      -0.02761057       0.00000000
