10
Lattice="16.28999089631971 0.0 0.0 0.0 16.28999089631971 0.0 0.0 0.0 34.25627252547053" Properties=species:S:1:pos:R:3:initial_magmoms:R:1 pbc="T T T"
Si      -0.32866704      -0.52556427       2.24087532       0.00000000
Si       0.73177938      -1.67392782      -1.53427079       0.00000000
Si      -2.43139653      -0.81757881      -0.34773562       0.00000000
Si      -1.97563491       1.44888866      -1.06783712       0.00000000
Si       2.17113120       0.27820618       1.64875532       0.00000000
Si       1.77049494      -0.02023218      -2.83052887       0.00000000
Si      -2.25898317       0.43796709       3.22454473       0.00000000
Si      -3.75311826       0.24366942       1.31246130       0.00000000
Si      -0.99979875      -2.65504194      -2.87749424       0.00000000
Si      -1.01841822       2.81439791      -2.76783985       0.00000000
