10
Lattice="16.28999089631971 0.0 0.0 0.0 16.28999089631971 0.0 0.0 0.0 34.25627252547053" Properties=species:S:1:pos:R:3:initial_magmoms:R:1 pbc="T T T"
Si      -1.17247275      -1.55835027       1.31588693       0.00000000
Si       1.37723805      -1.33477002      -1.38515315       0.00000000
Si      -1.33814205       1.41020901      -1.35754258       0.00000000
Si       1.73157813       0.98111412       1.34322345       0.00000000
Si      -1.43159778       1.83746313       2.52975863       0.00000000
Si       3.33995499      -0.91870713       1.49628056       0.00000000
Si       2.67020793      -2.71596654       0.01291462       0.00000000
Si       2.77029369       2.63480976       0.04696538       0.00000000
Si      -2.68082901       0.03297096      -2.73844796       0.00000000
Si       0.03849327      -2.68258833      -2.74077738       0.00000000
