10
Lattice="16.28999089631971 0.0 0.0 0.0 16.28999089631971 0.0 0.0 0.0 34.25627252547053" Properties=species:S:1:pos:R:3:initial_magmoms:R:1 pbc="T T T"
Si      -0.17306496       1.04013279      -2.12673336       0.00000000
Si       0.06913476      -2.37605940       0.05200105       0.00000000
Si       1.58589666       1.45876950       1.04947575       0.00000000
Si      -2.28038823       0.29346435       1.10298408       0.00000000
Si      -0.25283709       0.99277776       2.41476026       0.00000000
Si       0.50798736      -0.88070256      -3.36324846       0.00000000
Si      -2.90926368       2.03693418      -0.29597436       0.00000000
Si      -0.07858296      -2.91335247      -2.23155761       0.00000000
Si       2.19126564      -1.58723244       2.60388924       0.00000000
Si      -1.85551245      -3.12689808       1.21859906       0.00000000
