10
Lattice="16.28999089631971 0.0 0.0 0.0 16.28999089631971 0.0 0.0 0.0 34.25627252547053" Properties=species:S:1:pos:R:3:initial_magmoms:R:1 pbc="T T T"
Si      -1.41105609       0.32591535       1.87671632       0.00000000
Si       1.04381433      -2.17565982      -0.01925204       0.00000000
Si      -1.44461349       1.82662118      -0.85277612       0.00000000
Si       2.20955931       0.51970380      -1.57822161       0.00000000
Si       3.12258123      -0.99673623       0.03915494       0.00000000
Si       1.32475167       2.99586851      -0.63514590       0.00000000
Si      -3.21434280       1.17694014       0.53182893       0.00000000
Si       0.14911866       1.55995062       3.15500245       0.00000000
Si       1.86800688       2.51155052       1.73083339       0.00000000
Si      -1.72344942       1.66289039      -3.18066243       0.00000000
