10
Lattice="16.28999089631971 0.0 0.0 0.0 16.28999089631971 0.0 0.0 0.0 34.25627252547053" Properties=species:S:1:pos:R:3:initial_magmoms:R:1 pbc="T T T"
Si      -1.35198855      -1.35438318      -1.38176178       0.00000000
Si       1.36216494       1.36405944      -1.38323480       0.00000000
Si       1.44586311      -1.38572514       1.34370304       0.00000000
Si      -1.44433656       1.38377034       1.40108233       0.00000000
Si       2.70123616       2.71393029      -0.02504135       0.00000000
Si      -2.70896184      -2.70653626       0.00644018       0.00000000
Si      -2.71844262       2.72808630      -0.02795313       0.00000000
Si       2.74063679      -2.70726279      -0.03912069       0.00000000
Si      -2.71192662       0.00294849      -2.74159953       0.00000000
Si       0.00480555      -2.71231106      -2.74249020       0.00000000
