10
Lattice="16.28999089631971 0.0 0.0 0.0 16.28999089631971 0.0 0.0 0.0 34.25627252547053" Properties=species:S:1:pos:R:3:initial_magmoms:R:1 pbc="T T T"
Si       1.35598774      -1.35654975       1.35723428       0.00000000
Si       1.35574339       1.35811359      -1.35685746       0.00000000
Si      -1.35769907      -1.35664749      -1.35833048       0.00000000
Si      -1.35881085       1.35798327       1.35747407       0.00000000
Si       2.71341716      -2.71389771       0.00006851       0.00000000
Si       2.71344974      -0.00024435       2.71429727       0.00000000
Si       2.71289588      -0.00167787      -2.71546198       0.00000000
Si       2.71362893       2.71529865       0.00034256       0.00000000
Si       0.00171860       2.71643895      -2.71272148       0.00000000
Si      -0.00180819       2.71533123       2.71460558       0.00000000
