10
Lattice="16.28999089631971 0.0 0.0 0.0 16.28999089631971 0.0 0.0 0.0 34.25627252547053" Properties=species:S:1:pos:R:3:initial_magmoms:R:1 pbc="T T T"
Si       0.33987456       0.24444774       2.25882562       0.00000000
Si      -0.11207520       2.20027401      -0.78118048       0.00000000
Si       1.56108699      -1.36879657      -1.07783996       0.00000000
Si      -1.96361289      -0.54354354      -1.19009783       0.00000000
Si      -1.90102671       1.63414764      -2.15413839       0.00000000
Si       0.60532011      -3.29397551      -0.05604329       0.00000000
Si      -2.84659605       1.62847872       0.96732916       0.00000000
Si       2.65101572       0.78185484       2.15033594       0.00000000
Si       0.49844142      -1.59694242      -3.22971743       0.00000000
Si       1.42410438       2.20711581      -2.59580476       0.00000000
