10
Lattice="16.28999089631971 0.0 0.0 0.0 16.28999089631971 0.0 0.0 0.0 34.25627252547053" Properties=species:S:1:pos:R:3:initial_magmoms:R:1 pbc="T T T"
Si       2.20962840       0.82702375      -0.13431892       0.00000000
Si      -0.65813229      -0.36973806      -2.25697578       0.00000000
Si       0.91302192      -1.51644003       1.61737655       0.00000000
Si      -2.20955931      -0.51970380       1.57822161       0.00000000
Si      -0.88480764       2.47616471       0.94307571       0.00000000
Si      -1.16574498      -2.69536362       1.55896958       0.00000000
Si       3.12783054      -1.23625203      -0.86469731       0.00000000
Si       1.30740282       0.02612753       3.54692251       0.00000000
Si      -0.14970510       1.61269697      -3.43919466       0.00000000
Si      -0.34155243       1.99184672       3.30905501       0.00000000
