10
Lattice="16.28999089631971 0.0 0.0 0.0 16.28999089631971 0.0 0.0 0.0 34.25627252547053" Properties=species:S:1:pos:R:3:initial_magmoms:R:1 pbc="T T T"
Si       1.35529542       1.35700587       1.38732500       0.00000000
Si      -1.36111095      -1.35601218       1.38807864       0.00000000
Si      -1.48498011       1.26449496      -1.44562921       0.00000000
Si       1.42021107      -1.36319607      -1.45204199       0.00000000
Si      -2.72497491       2.69404020       0.02685693       0.00000000
Si       2.71538010       2.71059084       0.01008848       0.00000000
Si      -2.71477737      -2.71529865       0.02072848       0.00000000
Si       2.71690753      -2.71386513       0.02047499       0.00000000
Si       2.71307323       0.00122175       2.74740255       0.00000000
Si      -0.00469152      -2.71568961       2.74819045       0.00000000
