10
Lattice="16.28999089631971 0.0 0.0 0.0 16.28999089631971 0.0 0.0 0.0 34.25627252547053" Properties=species:S:1:pos:R:3:initial_magmoms:R:1 pbc="T T T"
Si       1.33907122       1.34987085       1.35819345       0.00000000
Si      -1.35820647       1.35307998      -1.35932391       0.00000000
Si       1.35707656      -1.36220238      -1.35891283       0.00000000
Si      -1.36216494      -1.36405944       1.38323480       0.00000000
Si       2.58689662      -0.02326212       2.79627258       0.00000000
Si      -0.00059563       2.71134018      -2.71662670       0.00000000
Si       2.71692340       2.71161711       0.00291178       0.00000000
Si      -2.71811196       2.71148679       0.00113046       0.00000000
Si       2.71420297      -0.00319284      -2.71686649       0.00000000
Si      -2.71548927      -0.00314397      -2.71693500       0.00000000
