10
Lattice="16.28999089631971 0.0 0.0 0.0 16.28999089631971 0.0 0.0 0.0 34.25627252547053" Properties=species:S:1:pos:R:3:initial_magmoms:R:1 pbc="T T T"
Si      -1.27410606       1.34431596      -1.42903546       0.00000000
Si       1.10061756       1.61841150       1.32869878       0.00000000
Si      -1.85072319      -0.87066792       1.25833636       0.00000000
Si       1.44433656      -1.38377034      -1.40108233       0.00000000
Si      -0.48492072       3.41066988       1.20034046       0.00000000
Si      -2.57986359       2.63854017       0.07824137       0.00000000
Si       1.95541902      -1.43008281       2.85378889       0.00000000
Si      -2.62200582      -0.02153538      -2.78390606       0.00000000
Si      -2.67926517      -2.73114882       0.06419629       0.00000000
Si       2.80295193       2.65548177       0.00811874       0.00000000
