10
Lattice="16.28999089631971 0.0 0.0 0.0 16.28999089631971 0.0 0.0 0.0 34.25627252547053" Properties=species:S:1:pos:R:3:initial_magmoms:R:1 pbc="T T T"
Si       1.05230142       1.53305190      -1.37984141       0.00000000
Si      -1.23825177       1.39546656       1.37328677       0.00000000
Si       1.48349772      -1.32338331       1.32817124       0.00000000
Si      -1.95577740      -0.73974519      -1.29177016       0.00000000
Si       2.02282934      -0.18324621      -3.00016401       0.00000000
Si       2.67349592       2.60486874       0.02061544       0.00000000
Si      -2.58996339       0.03942180       2.70938149       0.00000000
Si      -2.61710253       2.72476314       0.05540955       0.00000000
Si       0.12341304      -2.67696828       2.70540776       0.00000000
Si      -0.81080217       3.54068037      -1.21441774       0.00000000
