10
Lattice="16.28999089631971 0.0 0.0 0.0 16.28999089631971 0.0 0.0 0.0 34.25627252547053" Properties=species:S:1:pos:R:3:initial_magmoms:R:1 pbc="T T T"
Si      -1.35514881       1.35767376       1.35767961       0.00000000
Si      -1.35648459      -1.35755973      -1.35692597       0.00000000
Si       1.35827649       1.35765747      -1.35699448       0.00000000
Si       1.35539316      -1.35736425       1.36072842       0.00000000
Si      -0.01640403       2.70549207       2.71330384       0.00000000
Si      -0.00710244      -2.70482418       2.71487963       0.00000000
Si      -2.71355562       2.71394658       0.00006851       0.00000000
Si       2.71526607       0.00039096      -2.71361214       0.00000000
Si      -2.71484253       0.00011403      -2.71409173       0.00000000
Si       0.00047241      -2.71485882      -2.71409173       0.00000000
