10
Lattice="16.28999089631971 0.0 0.0 0.0 16.28999089631971 0.0 0.0 0.0 34.25627252547053" Properties=species:S:1:pos:R:3:initial_magmoms:R:1 pbc="T T T"
Si      -1.24782540       1.37313297      -1.43807912       0.00000000
Si       0.99520497       1.78916328       1.27957526       0.00000000
Si      -1.30149932      -1.39720959       1.51056544       0.00000000
Si       1.48467060      -1.35306369      -1.39875290       0.00000000
Si      -2.50319845      -2.72652246      -0.06933473       0.00000000
Si      -2.59044619       2.69845479      -0.00383670       0.00000000
Si      -2.58689662       0.02326212      -2.79627258       0.00000000
Si       0.12862584      -2.69509905      -2.80004077       0.00000000
Si      -0.82891665       3.55319109       1.35007471       0.00000000
Si       0.13002678       2.73487923      -2.79336079       0.00000000
