10
Lattice="16.28999089631971 0.0 0.0 0.0 16.28999089631971 0.0 0.0 0.0 34.25627252547053" Properties=species:S:1:pos:R:3:initial_magmoms:R:1 pbc="T T T"
Si       1.34403149       1.34381097      -1.37165617       0.00000000
Si      -1.37406150      -1.37049399      -1.37035444       0.00000000
Si      -1.45288881       1.31116581       1.38028876       0.00000000
Si       1.34050089      -1.40678811       1.42095098       0.00000000
Si      -1.94737176      -0.65160000       2.61317270       0.00000000
Si      -0.36183348      -2.44385838       2.74153102       0.00000000
Si       2.70338156       2.68723098       0.02069080       0.00000000
Si       2.68312168      -2.73210993      -0.01329144       0.00000000
Si       2.70045750      -0.01329264      -2.73098008       0.00000000
Si      -0.01469358       2.70264132      -2.73115137       0.00000000
