10
Lattice="16.28999089631971 0.0 0.0 0.0 16.28999089631971 0.0 0.0 0.0 34.25627252547053" Properties=species:S:1:pos:R:3:initial_magmoms:R:1 pbc="T T T"
Si      -1.76831208      -0.56558880      -1.39680029       0.00000000
Si      -0.16452900      -0.98231958       2.14101823       0.00000000
Si      -0.37579401       2.26000944       0.65693291       0.00000000
Si       1.96371782      -0.89080236      -1.15258719       0.00000000
Si       0.73246356      -3.13173621       1.87936867       0.00000000
Si      -2.01150549      -2.92169295      -1.44623212       0.00000000
Si      -1.24582662       0.48988917      -3.60773561       0.00000000
Si      -2.58766650       2.42947431       1.62970882       0.00000000
Si      -2.39669883      -1.08180261       2.89380024       0.00000000
Si      -3.89606301      -0.66974706      -0.17176105       0.00000000
