10
Lattice="16.28999089631971 0.0 0.0 0.0 16.28999089631971 0.0 0.0 0.0 34.25627252547053" Properties=species:S:1:pos:R:3:initial_magmoms:R:1 pbc="T T T"
Si       1.34262079      -1.32532182      -1.43424242       0.00000000
Si       1.76152954       0.85473630       1.35391142       0.00000000
Si      -1.70233437      -1.03707027       1.32058004       0.00000000
Si      -1.34050089       1.40678811      -1.42095098       0.00000000
Si      -3.28787265       0.75518811       1.19222172       0.00000000
Si       2.59044619      -2.69845479       0.00383670       0.00000000
Si       0.85341091       0.71573373       3.67134955       0.00000000
Si      -2.80295193      -2.65548177      -0.00811874       0.00000000
Si       0.00354957      -2.67519267      -2.79243587       0.00000000
Si       2.73896212       2.72621295       0.14747334       0.00000000
