10
Lattice="16.28999089631971 0.0 0.0 0.0 16.28999089631971 0.0 0.0 0.0 34.25627252547053" Properties=species:S:1:pos:R:3:initial_magmoms:R:1 pbc="T T T"
Si       0.08718408       1.71782937      -1.45962633       0.00000000
Si       1.81692537      -1.38657222      -0.44581138       0.00000000
Si      -1.88726166       0.08369802       1.43228981       0.00000000
Si      -1.74521286      -0.21919824      -1.80249756       0.00000000
Si      -3.22773318       0.92704761      -0.44947680       0.00000000
Si      -1.63281186      -2.61433323      -1.49768507       0.00000000
Si      -1.01199996       1.66035825       2.94665770       0.00000000
Si       0.65405979      -3.25620810      -1.23010918       0.00000000
Si       2.61602154      -1.70300547       1.72285168       0.00000000
Si       3.10809032      -0.05395248      -1.93256869       0.00000000
