10
Lattice="16.28999089631971 0.0 0.0 0.0 16.28999089631971 0.0 0.0 0.0 34.25627252547053" Properties=species:S:1:pos:R:3:initial_magmoms:R:1 pbc="T T T"
Si       0.87526170       1.57666023       1.51436789       0.00000000
Si       1.88726166      -0.08369802      -1.43228981       0.00000000
Si      -0.35743518      -2.20680630       0.89621310       0.00000000
Si      -1.34047152       0.84334959      -1.88176661       0.00000000
Si       0.14204880      -0.30289626      -3.23478737       0.00000000
Si      -0.75395007       1.62764793       3.24102201       0.00000000
Si      -0.82306854      -3.56969286      -1.05564188       0.00000000
Si       1.49477040       3.53123217       0.28836946       0.00000000
Si       1.97444574       1.63413135      -2.89191614       0.00000000
Si      -2.23326126      -2.10856131       2.37382399       0.00000000
