10
Lattice="16.28999089631971 0.0 0.0 0.0 16.28999089631971 0.0 0.0 0.0 34.25627252547053" Properties=species:S:1:pos:R:3:initial_magmoms:R:1 pbc="T T T"
Si       1.55287913      -0.77041926       1.58058530       0.00000000
Si       0.79446330       1.86650820      -1.25552735       0.00000000
Si      -0.48723390      -1.74851973      -1.57609772       0.00000000
Si      -2.12612193      -0.46612206       1.03077182       0.00000000
Si       0.58235121       0.94587885       3.20090789       0.00000000
Si       1.06963025      -3.25570311       1.27512194       0.00000000
Si      -0.81507015      -3.57081687      -0.05970872       0.00000000
Si      -1.10754081       2.58149259      -2.41938486       0.00000000
Si      -2.73675258       2.63248029      -0.69273073       0.00000000
Si       1.47277794       3.56368185       0.29234319       0.00000000
