10
Lattice="16.28999089631971 0.0 0.0 0.0 16.28999089631971 0.0 0.0 0.0 34.25627252547053" Properties=species:S:1:pos:R:3:initial_magmoms:R:1 pbc="T T T"
Si       1.47381293      -1.23856128       1.28837570       0.00000000
Si      -1.27145079       1.46723610       1.27754044       0.00000000
Si      -0.82660347      -1.81452681      -1.29002138       0.00000000
Si       0.77546916       1.83430517      -1.34144829       0.00000000
Si       0.38108826       0.29173761      -3.27099425       0.00000000
Si       0.10511937      -2.60048673       2.63627857       0.00000000
Si      -2.60912043       0.11754864       2.63758031       0.00000000
Si      -2.63290383      -2.63044404      -0.02019408       0.00000000
Si       2.65769462      -2.75033844      -0.05498820       0.00000000
Si      -1.69767864      -0.88718598      -3.32940123       0.00000000
