10
Lattice="16.28999089631971 0.0 0.0 0.0 16.28999089631971 0.0 0.0 0.0 34.25627252547053" Properties=species:S:1:pos:R:3:initial_magmoms:R:1 pbc="T T T"
Si       1.35726651       1.35711990      -1.35661766       0.00000000
Si      -1.35754344       1.35733167       1.35709725       0.00000000
Si       1.35751086      -1.35754344       1.35713151       0.00000000
Si      -1.35782037      -1.35874890      -1.35812494       0.00000000
Si       2.71298547       0.00013032      -2.71231041       0.00000000
Si       2.71399545       0.00057015       2.71405748       0.00000000
Si      -2.71432125      -0.00125433       2.71419450       0.00000000
Si       0.00000000       2.71389771       2.71487963       0.00000000
Si      -0.00125433       2.71816569      -2.71100867       0.00000000
Si       2.71450044      -2.71480995       0.00051384       0.00000000
