10
Lattice="16.28999089631971 0.0 0.0 0.0 16.28999089631971 0.0 0.0 0.0 34.25627252547053" Properties=species:S:1:pos:R:3:initial_magmoms:R:1 pbc="T T T"
Si      -1.35679410       1.35691096       1.35692597       0.00000000
Si       1.35685746       1.35696546      -1.35757684       0.00000000
Si      -1.35720135      -1.35778779      -1.35661766       0.00000000
Si       1.35751314      -1.35762489       1.35713151       0.00000000
Si      -2.71572219       0.00325800      -2.71100867       0.00000000
Si      -0.00148239      -2.71477737      -2.71231041       0.00000000
Si      -0.00047241      -2.71433754       2.71405748       0.00000000
Si       2.71480899       0.00084708       2.71385194       0.00000000
Si       0.00091224       2.71466075       2.71446855       0.00000000
Si      -2.71456560       2.71476012      -0.00003426       0.00000000
