10
Lattice="16.28999089631971 0.0 0.0 0.0 16.28999089631971 0.0 0.0 0.0 34.25627252547053" Properties=species:S:1:pos:R:3:initial_magmoms:R:1 pbc="T T T"
Si       0.86198535      -2.01152178      -0.83958745       0.00000000
Si      -2.26126377      -0.47403900      -0.41480944       0.00000000
Si       0.38231001      -0.11442096       2.34069815       0.00000000
Si       0.95576688       1.92517893      -1.02179667       0.00000000
Si      -0.60532011       3.29397551       0.05604329       0.00000000
Si      -2.43374229       0.76388697      -2.50166847       0.00000000
Si      -0.10687869       1.69703309      -3.17367414       0.00000000
Si      -2.45293191      -2.80230354       0.17056208       0.00000000
Si       2.67280848       0.27318330       2.59707224       0.00000000
Si       0.77480127      -3.72935115       0.62003888       0.00000000
