10
Lattice="16.28999089631971 0.0 0.0 0.0 16.28999089631971 0.0 0.0 0.0 34.25627252547053" Properties=species:S:1:pos:R:3:initial_magmoms:R:1 pbc="T T T"
Si      -1.86026605      -1.26780183      -0.56358451       0.00000000
Si      -0.49430068       0.47934954       2.26752671       0.00000000
Si       1.89636174      -1.38816864       0.32488667       0.00000000
Si      -0.19099717       1.76656905      -1.59168434       0.00000000
Si       2.15957556       2.06729874      -1.84983975       0.00000000
Si      -1.10437747      -3.32399079       0.33783555       0.00000000
Si      -2.78117233       1.12122441       1.99995082       0.00000000
Si       0.94491008      -3.19143906       1.46442221       0.00000000
Si       3.42848511      -0.01371618       1.39121652       0.00000000
Si      -1.94777593      -1.31388624      -2.87694614       0.00000000
