10
Lattice="16.28999089631971 0.0 0.0 0.0 16.28999089631971 0.0 0.0 0.0 34.25627252547053" Properties=species:S:1:pos:R:3:initial_magmoms:R:1 pbc="T T T"
Si      -1.94369022      -1.10643309      -0.88912205       0.00000000
Si       0.93926511      -0.38861424      -2.22138349       0.00000000
Si      -0.61348140       2.29029255       0.59674460       0.00000000
Si      -0.11414403      -0.05310540       2.64468849       0.00000000
Si      -3.42328925      -0.73678041       0.98795145       0.00000000
Si       1.84469589      -1.68251265       2.67202501       0.00000000
Si      -2.94004038       1.74850344       1.29341480       0.00000000
Si       0.03072294       3.37220919      -1.45085672       0.00000000
Si      -1.15445601      -3.29859468      -1.22000357       0.00000000
Si       0.51807087      -2.70744687      -2.76403741       0.00000000
