10
Lattice="16.28999089631971 0.0 0.0 0.0 16.28999089631971 0.0 0.0 0.0 34.25627252547053" Properties=species:S:1:pos:R:3:initial_magmoms:R:1 pbc="T T T"
Si      -2.00122487      -1.03987215      -0.63932517       0.00000000
Si       1.67252688       0.59114781      -1.54403383       0.00000000
Si      -0.78923421       2.19216159       0.33088152       0.00000000
Si      -0.28717641      -1.93841226       1.60045395       0.00000000
Si       1.15445601       3.29859468       1.22000357       0.00000000
Si       2.09372112       2.90998044      -1.00137992       0.00000000
Si       1.78619850      -0.70366284       3.22468176       0.00000000
Si      -2.11491767      -3.06923800       0.56649630       0.00000000
Si       0.83684988       0.37110249      -3.74075279       0.00000000
Si       3.67776072      -0.59007267      -1.16642673       0.00000000
