10
Lattice="16.28999089631971 0.0 0.0 0.0 16.28999089631971 0.0 0.0 0.0 34.25627252547053" Properties=species:S:1:pos:R:3:initial_magmoms:R:1 pbc="T T T"
Si      -1.34697123      -1.32590826       1.37729133       0.00000000
Si      -1.51408382       1.23862644      -1.31318754       0.00000000
Si       1.36744776       1.38911346       1.37095392       0.00000000
Si       1.34157924      -1.47343050      -1.50341272       0.00000000
Si       0.40154850       2.07588357      -2.42176053       0.00000000
Si       2.29351797       0.45413262      -2.55779740       0.00000000
Si      -2.70408203      -2.68962561      -0.00563173       0.00000000
Si       2.72502378      -2.67882534       0.00727261       0.00000000
Si       0.00705357      -2.68423362       2.73315536       0.00000000
Si      -2.70814025       0.02969667       2.73260726       0.00000000
