10
Lattice="16.28999089631971 0.0 0.0 0.0 16.28999089631971 0.0 0.0 0.0 34.25627252547053" Properties=species:S:1:pos:R:3:initial_magmoms:R:1 pbc="T T T"
Si       1.35700266       1.35734796       1.35713151       0.00000000
Si      -1.35764343       1.35790182      -1.35658341       0.00000000
Si      -1.35761085      -1.35826020       1.35730279       0.00000000
Si       1.35881085      -1.35798327      -1.35747407       0.00000000
Si       0.00059563      -2.71134018       2.71662670       0.00000000
Si       2.71455425       0.00013032      -2.71433153       0.00000000
Si      -0.00063957       2.71406061      -2.71487963       0.00000000
Si       2.71479860      -2.71453302      -0.00023979       0.00000000
Si      -2.71489365      -2.71448415      -0.00030831       0.00000000
Si      -2.71463301       2.71516833       0.00003426       0.00000000
