10
Lattice="16.28999089631971 0.0 0.0 0.0 16.28999089631971 0.0 0.0 0.0 34.25627252547053" Properties=species:S:1:pos:R:3:initial_magmoms:R:1 pbc="T T T"
Si       1.35770634       1.35739683       1.35726853       0.00000000
Si       1.35711990      -1.35793440      -1.35737130       0.00000000
Si      -1.35799793       1.35731538      -1.35743981       0.00000000
Si      -1.35831721      -1.35790182       1.35689171       0.00000000
Si       2.71150308      -0.00071676       2.71443430       0.00000000
Si      -0.00057015       2.71443528      -2.71477686       0.00000000
Si       2.71446786      -2.71503801      -0.00020554       0.00000000
Si      -0.00076563      -2.71511946      -2.71457132       0.00000000
Si       2.71487511      -0.00053757      -2.71491388       0.00000000
Si       2.71459818       2.71536381      -0.00034256       0.00000000
