10
Lattice="16.28999089631971 0.0 0.0 0.0 16.28999089631971 0.0 0.0 0.0 34.25627252547053" Properties=species:S:1:pos:R:3:initial_magmoms:R:1 pbc="T T T"
Si       1.35474156      -1.35850455      -1.36271528       0.00000000
Si      -1.36051636       1.35707103      -1.36240698       0.00000000
Si      -1.37785218      -1.36174626       1.35528167       0.00000000
Si       1.35202113       1.37432214       1.37354027       0.00000000
Si       2.70930393       2.71425609      -0.00486439       0.00000000
Si       2.71220355      -2.71368594      -0.00013703       0.00000000
Si      -2.71692340      -2.71161711      -0.00291178       0.00000000
Si      -2.71694237       2.71417464      -0.00308307       0.00000000
Si       2.71226871      -0.00006516      -2.71950423       0.00000000
Si      -0.00219915       2.71497285      -2.71929869       0.00000000
