10
Lattice="16.28999089631971 0.0 0.0 0.0 16.28999089631971 0.0 0.0 0.0 34.25627252547053" Properties=species:S:1:pos:R:3:initial_magmoms:R:1 pbc="T T T"
Si       1.55027043       1.13580396      -1.34408470       0.00000000
Si      -1.34801379       1.38986145       1.37543807       0.00000000
Si       1.38696318      -1.32662502       1.40497727       0.00000000
Si      -0.94325616      -2.00386548      -1.03442182       0.00000000
Si       2.56049478      -0.53576181      -2.72701119       0.00000000
Si       2.74820445       2.63325962       0.04590686       0.00000000
Si       0.02264310      -2.69063559       2.75829263       0.00000000
Si      -2.69390662       0.02391372       2.76031375       0.00000000
Si       2.73245202      -2.73816981       0.08000214       0.00000000
Si       2.73422763       0.02275713       2.76531517       0.00000000
