10
Lattice="16.28999089631971 0.0 0.0 0.0 16.28999089631971 0.0 0.0 0.0 34.397273925272025" Properties=species:S:1:pos:R:3:initial_magmoms:R:1 pbc="T T T"
Si       1.88713134       0.91621476       1.01058387       0.00000000
Si       0.13300785       0.25980921      -2.33129344       0.00000000
Si      -1.05307682      -1.88979313       0.97073461       0.00000000
Si      -1.81287500       1.56359565      -0.32115002       0.00000000
Si       0.41370084       2.15179497       2.40651202       0.00000000
Si      -2.34537898      -0.55105812       2.38985685       0.00000000
Si      -1.73647816       1.63747080      -2.72060200       0.00000000
Si      -0.83189772       3.44303811       0.93350642       0.00000000
Si       2.72942208       2.52087750      -0.60706032       0.00000000
Si      -0.48203739      -1.89183915      -3.30993082       0.00000000
