10
Lattice="16.28999089631971 0.0 0.0 0.0 16.28999089631971 0.0 0.0 0.0 34.397273925272025" Properties=species:S:1:pos:R:3:initial_magmoms:R:1 pbc="T T T"
Si       0.19948571       2.27033730       0.42232997       0.00000000
Si       2.09584859      -0.88089804       0.47867273       0.00000000
Si      -0.86273632      -0.82474641      -1.99669407       0.00000000
Si      -1.56487997      -0.87084711       1.48568789       0.00000000
Si      -2.13454127       2.83393872       0.18244324       0.00000000
Si       1.11435980       2.10452139       2.65364797       0.00000000
Si       1.52025773      -2.94633972       1.38493821       0.00000000
Si       1.83543665       2.85764067      -1.25694589       0.00000000
Si      -3.12761225      -0.21383883      -1.83268778       0.00000000
Si       2.74849115       0.41892993       2.33764004       0.00000000
