10
Lattice="16.28999089631971 0.0 0.0 0.0 16.28999089631971 0.0 0.0 0.0 34.397273925272025" Properties=species:S:1:pos:R:3:initial_magmoms:R:1 pbc="T T T"
Si       1.02288168      -1.58312410       1.36701722       0.00000000
Si      -2.16696096       0.75207672       0.56143262       0.00000000
Si       1.33600806       1.85376942       0.75619009       0.00000000
Si      -0.54920106      -0.68466870      -2.26093408       0.00000000
Si      -1.95823719       2.50844823      -0.97433773       0.00000000
Si      -0.78216435       1.58796549      -2.83629760       0.00000000
Si       2.86930431      -2.09706220      -0.22296325       0.00000000
Si      -3.42244755      -1.13743296       0.05507007       0.00000000
Si       0.97972947      -0.31584681       3.49462739       0.00000000
Si       0.73300113       2.02111659       3.03851929       0.00000000
