10
Lattice="16.28999089631971 0.0 0.0 0.0 16.28999089631971 0.0 0.0 0.0 34.397273925272025" Properties=species:S:1:pos:R:3:initial_magmoms:R:1 pbc="T T T"
Si       0.02171457      -0.63967215       2.27823592       0.00000000
Si      -0.55749267       2.20378711      -1.02841027       0.00000000
Si       0.40358475      -1.52781924      -1.96394785       0.00000000
Si       2.52289746      -0.76732059      -1.11082618       0.00000000
Si       2.99459070       1.54643674      -1.18873605       0.00000000
Si      -2.52014445       1.61817790      -2.25567129       0.00000000
Si       1.27206981       2.47112230      -2.54020570       0.00000000
Si       0.91355949       1.09531940       3.67923908       0.00000000
Si       2.03432778      -2.59399974       2.46969303       0.00000000
Si       2.24946981       2.52807214       2.35590501       0.00000000
