10
Lattice="16.28999089631971 0.0 0.0 0.0 16.28999089631971 0.0 0.0 0.0 34.397273925272025" Properties=species:S:1:pos:R:3:initial_magmoms:R:1 pbc="T T T"
Si      -1.41366249       1.29215538       1.35367107       0.00000000
Si      -1.36091547      -1.34806266      -1.35931223       0.00000000
Si       1.35646830       1.36586763      -1.36110089       0.00000000
Si       1.47330018      -1.28366829       1.35631967       0.00000000
Si       0.53382330       1.93901499       2.47897852       0.00000000
Si       2.45418624       0.39333834       2.71821169       0.00000000
Si      -2.71006956      -0.20654091       2.67610941       0.00000000
Si      -0.00273672      -2.70627399      -2.71693899       0.00000000
Si       2.71125873       0.00980658      -2.71625105       0.00000000
Si      -2.72241738      -2.70666495       0.00952805       0.00000000
