10
Lattice="16.28999089631971 0.0 0.0 0.0 16.28999089631971 0.0 0.0 0.0 34.397273925272025" Properties=species:S:1:pos:R:3:initial_magmoms:R:1 pbc="T T T"
Si      -0.20676897      -1.10035692      -1.98011458       0.00000000
Si      -2.08368648      -0.56925405       0.78291679       0.00000000
Si       1.14736986      -1.13083551       1.69461704       0.00000000
Si       0.68621625       2.26258326      -0.12358947       0.00000000
Si      -2.02158900       0.67036608       2.72275214       0.00000000
Si       3.29564619      -0.71153091       0.86681179       0.00000000
Si      -0.02870298      -0.21035277       3.55657692       0.00000000
Si      -0.76098735      -3.27184650      -1.20586591       0.00000000
Si       1.96012683      -1.08436014      -2.81435213       0.00000000
Si       3.35938896       0.19073961      -1.30967694       0.00000000
