10
Lattice="16.28999089631971 0.0 0.0 0.0 16.28999089631971 0.0 0.0 0.0 34.397273925272025" Properties=species:S:1:pos:R:3:initial_magmoms:R:1 pbc="T T T"
Si      -0.91198997      -0.36810350       2.15137870       0.00000000
Si      -0.71553257       1.56946005      -1.62176358       0.00000000
Si       2.22033987       0.83391768       0.02937529       0.00000000
Si      -0.32455628      -2.15882315      -0.96040682       0.00000000
Si      -0.18426680       0.30064824      -3.53738323       0.00000000
Si       1.85692626      -3.09087179      -0.99047006       0.00000000
Si      -3.06793889       0.57267495       2.10067709       0.00000000
Si       3.39383889      -0.42987844       1.59029005       0.00000000
Si      -1.21744376      -1.78042598      -3.13854662       0.00000000
Si      -0.96354782      -2.70569474       2.54158159       0.00000000
