10
Lattice="16.28999089631971 0.0 0.0 0.0 16.28999089631971 0.0 0.0 0.0 34.397273925272025" Properties=species:S:1:pos:R:3:initial_magmoms:R:1 pbc="T T T"
Si      -2.16689580      -0.01599678       0.83423755       0.00000000
Si      -0.32931864       0.77224374      -2.22780949       0.00000000
Si       1.39926213       1.27509975       1.50467519       0.00000000
Si       0.36502632      -2.40477867      -0.40014371       0.00000000
Si      -1.96012683       1.08436014       2.81435213       0.00000000
Si      -0.08824293       3.07398816      -1.93171759       0.00000000
Si       0.93125043      -0.63428373      -3.62361724       0.00000000
Si      -2.72111418      -2.18748636       1.60848622       0.00000000
Si      -0.71205219      -3.53903834       1.44743810       0.00000000
Si      -3.69287784       1.10908836      -0.63879213       0.00000000
