10
Lattice="16.28999089631971 0.0 0.0 0.0 16.28999089631971 0.0 0.0 0.0 34.397273925272025" Properties=species:S:1:pos:R:3:initial_magmoms:R:1 pbc="T T T"
Si      -2.14827633      -0.41930460       0.82780526       0.00000000
Si       0.06374277       0.90227052      -2.17648872       0.00000000
Si       1.39945761       1.29187845       1.39260881       0.00000000
Si       0.92421315      -2.16477810      -0.42442820       0.00000000
Si      -3.29564619       0.71153091      -0.86681179       0.00000000
Si       2.66346387      -0.55094409       2.21962293       0.00000000
Si       2.33974899       0.55416951      -2.65154974       0.00000000
Si      -1.91531304      -2.69193879       1.40316878       0.00000000
Si       2.15146917      -2.74577724       1.49239536       0.00000000
Si       2.32350786      -1.85381829      -2.35903516       0.00000000
