10
Lattice="16.28999089631971 0.0 0.0 0.0 16.28999089631971 0.0 0.0 0.0 34.397273925272025" Properties=species:S:1:pos:R:3:initial_magmoms:R:1 pbc="T T T"
Si      -1.99288602       0.88071885      -0.83382478       0.00000000
Si       1.26372933       1.94046480       0.30269618       0.00000000
Si      -0.20872377      -1.75637151       1.53577034       0.00000000
Si       1.17607284      -0.92048274      -1.86195988       0.00000000
Si       1.95823719      -2.50844823       0.97433773       0.00000000
Si      -2.05498350      -0.35890128      -2.77366013       0.00000000
Si       0.02870298       0.21035277      -3.55657692       0.00000000
Si       1.40903613      -3.19311693      -1.28659635       0.00000000
Si       0.29496303       3.12873885       2.05341521       0.00000000
Si      -1.61446932       3.21466860      -1.12950392       0.00000000
