10
Lattice="16.28999089631971 0.0 0.0 0.0 16.28999089631971 0.0 0.0 0.0 34.397273925272025" Properties=species:S:1:pos:R:3:initial_magmoms:R:1 pbc="T T T"
Si      -0.68002605       0.36401797       2.19272425       0.00000000
Si      -1.17349902       1.26379612      -1.56091477       0.00000000
Si      -0.38740878      -2.25211435      -0.48809759       0.00000000
Si       2.19322044       0.81678223      -0.12327990       0.00000000
Si       0.57546054       2.25352765       2.69908680       0.00000000
Si      -2.02335972      -2.83941772       1.19117826       0.00000000
Si       0.05189994       0.94840543      -3.59912637       0.00000000
Si       1.96025715       3.08941642      -0.69864342       0.00000000
Si       1.76277348      -3.29605900      -0.08062726       0.00000000
Si      -3.39383889       0.42987844      -1.59029005       0.00000000
