10
Lattice="16.28999089631971 0.0 0.0 0.0 16.28999089631971 0.0 0.0 0.0 34.397273925272025" Properties=species:S:1:pos:R:3:initial_magmoms:R:1 pbc="T T T"
Si      -1.35410625       1.35509994      -1.35889946       0.00000000
Si       1.35677781       1.35685926       1.35662924       0.00000000
Si       1.35474156      -1.35822762      -1.35817712       0.00000000
Si      -1.35834165      -1.35796698       1.35659484       0.00000000
Si      -2.71331127      -2.71446786      -0.00106632       0.00000000
Si       2.71394658       0.00001629       2.71449679       0.00000000
Si       2.71358820      -2.71500543       0.00003440       0.00000000
Si      -0.00117288       2.71471221       2.71473757       0.00000000
Si      -2.71599912      -0.00040725       2.71380884       0.00000000
Si      -0.00114030      -2.71625976       2.71394643       0.00000000
