10
Lattice="16.28999089631971 0.0 0.0 0.0 16.28999089631971 0.0 0.0 0.0 34.397273925272025" Properties=species:S:1:pos:R:3:initial_magmoms:R:1 pbc="T T T"
Si      -1.33152831      -1.36272366      -1.38136090       0.00000000
Si       1.32071175      -1.42824204       1.33427100       0.00000000
Si       1.37103156       1.36855548      -1.37375909       0.00000000
Si      -1.91497095       0.82267758       1.28456691       0.00000000
Si       0.88283655       1.96610526       3.13135758       0.00000000
Si      -2.68602389      -2.72052774      -0.02411250       0.00000000
Si      -2.70175677       2.70568755      -0.00271739       0.00000000
Si      -2.69710109       0.00301365      -2.73265856       0.00000000
Si       2.72909628       2.72067435       0.00209823       0.00000000
Si       0.01609452      -2.71132389      -2.73888447       0.00000000
