10
Lattice="16.28999089631971 0.0 0.0 0.0 16.28999089631971 0.0 0.0 0.0 34.397273925272025" Properties=species:S:1:pos:R:3:initial_magmoms:R:1 pbc="T T T"
Si       1.41538923      -1.22989500      -1.36811794       0.00000000
Si       1.85003901       0.97171479       1.12283084       0.00000000
Si      -1.31326722       1.50053706      -1.33523413       0.00000000
Si      -0.77416596      -2.00151972       1.12224609       0.00000000
Si       0.56479059       1.49975514       3.04694662       0.00000000
Si      -3.15952695       0.74596797       1.79402522       0.00000000
Si       0.04847904      -2.57466708      -2.71783332       0.00000000
Si       2.80284111      -2.51107092       0.05593000       0.00000000
Si      -2.72165175      -2.64837933      -0.00306136       0.00000000
Si      -2.67133194       0.14841819      -2.71109145       0.00000000
