10
Lattice="16.28999089631971 0.0 0.0 0.0 16.28999089631971 0.0 0.0 0.0 34.397273925272025" Properties=species:S:1:pos:R:3:initial_magmoms:R:1 pbc="T T T"
Si       1.25548659       1.88950968       0.50636255       0.00000000
Si       0.68002605      -0.36401797      -2.19272425       0.00000000
Si      -2.34913529       0.16438239       0.28436242       0.00000000
Si       0.76826898      -1.40266348       1.77613863       0.00000000
Si       0.47312676       2.11307364       2.67834523       0.00000000
Si       3.42244755       1.13743296      -0.05507007       0.00000000
Si      -0.42845958      -3.36925160       1.22977202       0.00000000
Si      -1.34333367      -3.20343569      -1.00154598       0.00000000
Si       2.87324649       0.45276426      -2.31600414       0.00000000
Si       0.29261727      -2.61613232      -2.68082184       0.00000000
