10
Lattice="16.28999089631971 0.0 0.0 0.0 16.28999089631971 0.0 0.0 0.0 34.397273925272025" Properties=species:S:1:pos:R:3:initial_magmoms:R:1 pbc="T T T"
Si      -0.17501976      -1.08323613       2.03023143       0.00000000
Si      -1.92314853       0.74668473      -1.13335641       0.00000000
Si       0.45067914       2.22277050       0.79058739       0.00000000
Si       1.12518288      -1.31597136      -1.68422906       0.00000000
Si       1.72390554       0.66085272      -2.78772862       0.00000000
Si       1.08150939       1.39388643       2.86250834       0.00000000
Si      -0.51611607       1.61355708      -2.95947431       0.00000000
Si       0.36948978      -3.32853570       1.79698339       0.00000000
Si      -1.59503535       3.11065695       1.50780535       0.00000000
Si       2.91182121       2.21599386      -1.37389668       0.00000000
