10
Lattice="16.28999089631971 0.0 0.0 0.0 16.28999089631971 0.0 0.0 0.0 34.397273925272025" Properties=species:S:1:pos:R:3:initial_magmoms:R:1 pbc="T T T"
Si      -0.64578447       1.11459438       1.90368379       0.00000000
Si       0.17501976       1.08323613      -2.03023143       0.00000000
Si       0.54450954      -2.24529957      -0.23324804       0.00000000
Si       1.25652915       2.47712256       0.83227691       0.00000000
Si       1.49579667      -1.64209716       2.10631825       0.00000000
Si       3.26894688       1.27306350       0.41094446       0.00000000
Si       0.62569890       3.30600663      -1.23964405       0.00000000
Si       0.40917222      -0.17787051       3.68068235       0.00000000
Si       2.79678123      -2.34463599      -0.88734697       0.00000000
Si      -2.33583939       2.79057474       1.22086313       0.00000000
