10
Lattice="16.28999089631971 0.0 0.0 0.0 16.28999089631971 0.0 0.0 0.0 34.397273925272025" Properties=species:S:1:pos:R:3:initial_magmoms:R:1 pbc="T T T"
Si       1.35734796       1.35785295       1.35700761       0.00000000
Si      -1.35705474       1.35702216      -1.35821152       0.00000000
Si      -1.35793440      -1.35734796       1.35769556       0.00000000
Si       1.35795069      -1.35785295      -1.35810833       0.00000000
Si      -0.00298107      -2.70695817       2.71834928       0.00000000
Si       0.00327429       2.71083065       2.71687020       0.00000000
Si      -2.71381626       2.71420084      -0.00055036       0.00000000
Si       0.00117288      -2.71471221      -2.71473757       0.00000000
Si       2.71511946      -2.71469592      -0.00024078       0.00000000
Si      -2.71482624      -2.71511946      -0.00092873       0.00000000
