10
Lattice="16.28999089631971 0.0 0.0 0.0 16.28999089631971 0.0 0.0 0.0 34.397273925272025" Properties=species:S:1:pos:R:3:initial_magmoms:R:1 pbc="T T T"
Si      -1.35407367       1.35297770       1.35986259       0.00000000
Si      -1.35734796      -1.35785295      -1.35700761       0.00000000
Si       1.35798327       1.35703990      -1.35731719       0.00000000
Si       1.35619137      -1.36073628       1.35955301       0.00000000
Si       0.00081450       2.71454998      -2.71497835       0.00000000
Si      -2.71440270      -0.00083079      -2.71521913       0.00000000
Si      -2.71487511       2.71512828      -0.00051596       0.00000000
Si       2.71498914      -0.00034209      -2.71521913       0.00000000
Si      -2.71528236      -2.71520091       0.00068795       0.00000000
Si       0.00060273      -2.71570590      -2.71511594       0.00000000
