10
Lattice="16.28999089631971 0.0 0.0 0.0 16.28999089631971 0.0 0.0 0.0 34.397273925272025" Properties=species:S:1:pos:R:3:initial_magmoms:R:1 pbc="T T T"
Si       1.89060111       0.68595561      -1.30358862       0.00000000
Si      -1.87805781      -0.54685530      -1.42975789       0.00000000
Si       0.53450748      -2.09464965       1.09655131       0.00000000
Si      -0.54786528       1.58956191       1.77662019       0.00000000
Si       2.31379902      -1.33776738      -2.53477093       0.00000000
Si      -2.80914534       1.66561992      -1.95930422       0.00000000
Si       2.83126716      -1.82674431       1.82006397       0.00000000
Si      -3.38338413      -1.96485093      -0.21773487       0.00000000
Si      -2.65108347       0.90095103       2.75800936       0.00000000
Si      -1.26687330      -2.76182289       2.62582056       0.00000000
