10
Lattice="16.28999089631971 0.0 0.0 0.0 16.28999089631971 0.0 0.0 0.0 34.397273925272025" Properties=species:S:1:pos:R:3:initial_magmoms:R:1 pbc="T T T"
Si      -0.02171457       0.63967215      -2.27823592       0.00000000
Si       0.89184492       1.73499156       1.40100317       0.00000000
Si      -1.78926102      -0.85118508       1.41767897       0.00000000
Si       2.01261321      -1.95432759       0.19145711       0.00000000
Si      -0.51078924      -2.22255873       2.89786673       0.00000000
Si       2.22285195       0.49107834       2.90402729       0.00000000
Si      -3.23771895      -1.96946100      -0.09297588       0.00000000
Si       2.22775524       3.16774430       0.07766909       0.00000000
Si       0.79184061      -3.55319109       1.44909402       0.00000000
Si       3.56992092      -0.83463444       1.50924113       0.00000000
