10
Lattice="16.28999089631971 0.0 0.0 0.0 16.28999089631971 0.0 0.0 0.0 34.397273925272025" Properties=species:S:1:pos:R:3:initial_magmoms:R:1 pbc="T T T"
Si       1.35589815      -1.35645201       1.36079131       0.00000000
Si      -1.34431596      -1.36344042      -1.36860294       0.00000000
Si      -1.35850455       1.35988920       1.36044734       0.00000000
Si       1.35373158       1.36870209      -1.38791014       0.00000000
Si       2.71349046      -2.71022106       0.00595073       0.00000000
Si      -2.71841004      -2.71147050       0.00199504       0.00000000
Si      -0.00159642      -2.71233713       2.71797091       0.00000000
Si       2.71454931       2.71627605      -0.00030958       0.00000000
Si       2.71353933       0.00180819       2.71800531       0.00000000
Si      -2.71637379       0.00172674       2.71793652       0.00000000
