10
Lattice="16.28999089631971 0.0 0.0 0.0 16.28999089631971 0.0 0.0 0.0 34.397273925272025" Properties=species:S:1:pos:R:3:initial_magmoms:R:1 pbc="T T T"
Si       1.35650088       1.35626583       1.35683563       0.00000000
Si       1.35488817      -1.35900417      -1.35831471       0.00000000
Si      -1.35868374      -1.35905304       1.35669804       0.00000000
Si      -1.36031274       1.35713246      -1.35914024       0.00000000
Si       0.00048870      -2.70232644      -2.72301356       0.00000000
Si       2.71399545       2.71215095      -0.00034397       0.00000000
Si      -2.70713736      -0.00325263      -2.71929177       0.00000000
Si      -0.00109143       2.71334012       2.71429040       0.00000000
Si       2.71389771      -0.00217255       2.71418721       0.00000000
Si      -2.71438641       2.71384511      -0.00010319       0.00000000
