10
Lattice="16.28999089631971 0.0 0.0 0.0 16.28999089631971 0.0 0.0 0.0 34.397273925272025" Properties=species:S:1:pos:R:3:initial_magmoms:R:1 pbc="T T T"
Si       2.11335057       0.69919938      -0.74016095       0.00000000
Si      -1.04456367       2.06825985      -0.37572163       0.00000000
Si      -0.94550418      -2.02556376      -0.74133046       0.00000000
Si      -0.12176775      -0.33405903       2.47251183       0.00000000
Si      -2.85407316      -2.23230015       0.58021354       0.00000000
Si      -0.25150131       3.37854600       1.42074580       0.00000000
Si       2.10543363       0.25111035      -3.02008234       0.00000000
Si       2.12351553       3.04188057      -0.47292838       0.00000000
Si      -1.22891760      -1.82146635      -3.06297576       0.00000000
Si      -0.85217877       2.56241700      -2.68625661       0.00000000
