10
Lattice="16.28999089631971 0.0 0.0 0.0 16.28999089631971 0.0 0.0 0.0 34.397273925272025" Properties=species:S:1:pos:R:3:initial_magmoms:R:1 pbc="T T T"
Si       1.54952109       0.39040614      -1.73809522       0.00000000
Si      -2.13476282       0.11213710      -1.06610970       0.00000000
Si       0.61504524       2.15164836       0.97863739       0.00000000
Si      -0.32260227      -2.34369836       1.20662265       0.00000000
Si      -2.19599693       2.42216010      -1.27218389       0.00000000
Si      -3.30181100      -0.08840420       1.20177263       0.00000000
Si      -1.85023470      -1.30660119       2.70428079       0.00000000
Si       3.51217287       0.97601535      -0.51083420       0.00000000
Si      -1.25444077       3.52930995       0.58932882       0.00000000
Si       0.48203739       1.89183915       3.30993082       0.00000000
