10
Lattice="16.28999089631971 0.0 0.0 0.0 16.28999089631971 0.0 0.0 0.0 34.397273925272025" Properties=species:S:1:pos:R:3:initial_magmoms:R:1 pbc="T T T"
Si       1.65664413       1.03612545      -1.30554926       0.00000000
Si      -0.98088606      -1.67700663      -1.36189203       0.00000000
Si      -1.92036294       1.54567665      -0.23923317       0.00000000
Si       0.79353477      -0.82964970       2.22849743       0.00000000
Si       0.29489787       1.48322079       2.48778423       0.00000000
Si      -3.10054086       0.46988505       1.67807195       0.00000000
Si       2.91514437      -1.54553004       1.37203923       0.00000000
Si       0.26919225       2.31730137      -2.72959720       0.00000000
Si      -2.45418624      -0.39333834      -2.71821169       0.00000000
Si       2.54006712       2.82150945      -0.03133593       0.00000000
