10
Lattice="16.28999089631971 0.0 0.0 0.0 16.28999089631971 0.0 0.0 0.0 34.397273925272025" Properties=species:S:1:pos:R:3:initial_magmoms:R:1 pbc="T T T"
Si      -0.54450954       2.24529957       0.23324804       0.00000000
Si       2.25227169      -0.09933642      -0.65409893       0.00000000
Si      -1.52648703      -1.13824746      -1.50574151       0.00000000
Si       0.95128713       0.60320241       2.33956629       0.00000000
Si       3.04533405       1.21094973       1.14236850       0.00000000
Si      -0.36948978       3.32853570      -1.79698339       0.00000000
Si      -1.27975869      -3.47521086      -1.04963340       0.00000000
Si       2.44465659       0.39482073      -2.96463390       0.00000000
Si      -3.80107602      -0.55333872      -0.89088989       0.00000000
Si       3.29683536      -2.16759627      -0.27837729       0.00000000
