10
Lattice="16.28999089631971 0.0 0.0 0.0 16.28999089631971 0.0 0.0 0.0 34.397273925272025" Properties=species:S:1:pos:R:3:initial_magmoms:R:1 pbc="T T T"
Si      -1.33525872      -1.37121075      -1.34495824       0.00000000
Si      -1.35278676       1.35628911       1.35683563       0.00000000
Si       1.35876519      -1.35894438       1.35656045       0.00000000
Si       1.37226960       1.35400851      -1.38193533       0.00000000
Si       0.13817178      -2.60679096      -2.74088639       0.00000000
Si      -2.58085728      -0.07996761      -2.81796384       0.00000000
Si      -2.71260917      -0.00211770       2.71422161       0.00000000
Si       0.00218286       2.71278999       2.71449679       0.00000000
Si       2.71526607       2.71252935      -0.00027518       0.00000000
Si      -2.71030902      -2.71832859      -0.00275178       0.00000000
