10
Lattice="16.28999089631971 0.0 0.0 0.0 16.28999089631971 0.0 0.0 0.0 34.397273925272025" Properties=species:S:1:pos:R:3:initial_magmoms:R:1 pbc="T T T"
Si       1.37505030       1.34711784      -1.34220646       0.00000000
Si       1.35455748      -1.35580041       1.36079131       0.00000000
Si      -1.35944606       1.35839052       1.36037855       0.00000000
Si      -1.38402951      -1.35573525      -1.35886163       0.00000000
Si       2.70925017      -2.71175395      -0.00134149       0.00000000
Si       2.71030902       2.71832859       0.00275178       0.00000000
Si      -2.71772164      -2.71124733       0.00529718       0.00000000
Si       2.71206834       0.00148239       2.71738616       0.00000000
Si      -0.00335900      -2.71348232       2.71759254       0.00000000
Si      -2.71666279       2.71524978      -0.00096312       0.00000000
