10
Lattice="16.28999089631971 0.0 0.0 0.0 16.28999089631971 0.0 0.0 0.0 34.397273925272025" Properties=species:S:1:pos:R:3:initial_magmoms:R:1 pbc="T T T"
Si      -1.24559856       1.29124314      -1.47300560       0.00000000
Si       1.33525872       1.37121075       1.34495824       0.00000000
Si      -1.37505030      -1.34711784       1.34220646       0.00000000
Si       1.47343050      -1.23558021      -1.39592815       0.00000000
Si      -0.41370084      -2.15179497      -2.40651202       0.00000000
Si       0.61610409       2.11840047      -2.71812240       0.00000000
Si      -2.22657584      -0.58819932      -2.72766205       0.00000000
Si       2.69402391       0.01226637       2.70151869       0.00000000
Si       2.31572124       0.36908253      -3.01357235       0.00000000
Si      -0.02049282      -2.70291825       2.70299777       0.00000000
