10
Lattice="16.28999089631971 0.0 0.0 0.0 16.28999089631971 0.0 0.0 0.0 34.397273925272025" Properties=species:S:1:pos:R:3:initial_magmoms:R:1 pbc="T T T"
Si      -1.53762939       1.61259597       0.74033294       0.00000000
Si       1.30087053       1.32955722      -1.51045394       0.00000000
Si      -1.18791567      -1.55514114      -1.41383194       0.00000000
Si       1.11057075      -1.27469250       1.73279804       0.00000000
Si      -2.46114207       0.00677664       2.16448407       0.00000000
Si      -3.06009279       1.72836900      -1.14601462       0.00000000
Si       3.19930713      -0.18502182       1.85136551       0.00000000
Si      -3.42793728      -0.60243678      -1.58557762       0.00000000
Si       2.95435440      -0.06112008      -2.44802096       0.00000000
Si       1.60966377      -3.40330680       0.88597108       0.00000000
