10
Lattice="16.28999089631971 0.0 0.0 0.0 16.28999089631971 0.0 0.0 0.0 34.397273925272025" Properties=species:S:1:pos:R:3:initial_magmoms:R:1 pbc="T T T"
Si       1.31717682       1.39859424       1.39649368       0.00000000
Si      -1.47839895      -1.38792429       1.28019299       0.00000000
Si       1.08662445      -1.46422665      -1.57436411       0.00000000
Si      -1.05495669       1.29246489      -1.77699856       0.00000000
Si      -0.40917222       0.17787051      -3.68068235       0.00000000
Si       2.54974338      -0.03319902       2.75929380       0.00000000
Si       2.44962504      -2.85829227      -0.28339930       0.00000000
Si      -0.18259461       2.69821044       2.73838712       0.00000000
Si      -0.17731665      -2.73556341       2.74819035       0.00000000
Si       2.62940148       2.94283737       0.05551111       0.00000000
