10
Lattice="16.28999089631971 0.0 0.0 0.0 16.28999089631971 0.0 0.0 0.0 34.397273925272025" Properties=species:S:1:pos:R:3:initial_magmoms:R:1 pbc="T T T"
Si       1.34682462       1.36038509       1.36015152       0.00000000
Si       1.34706897      -1.32571278      -1.39478616       0.00000000
Si      -1.36617714      -1.35438318       1.36063309       0.00000000
Si      -1.33100703       1.24391322      -1.50302412       0.00000000
Si      -0.21023874      -2.44540593      -2.71257017       0.00000000
Si      -2.22285195      -0.49107834      -2.90402729       0.00000000
Si       2.60499906       0.08962988      -2.77847717       0.00000000
Si      -2.70598077       2.69689814      -0.02054894       0.00000000
Si       2.70762606      -2.69907381      -0.00372179       0.00000000
Si       2.70713736       0.00325263       2.71929177       0.00000000
