10
Lattice="16.28999089631971 0.0 0.0 0.0 16.28999089631971 0.0 0.0 0.0 34.397273925272025" Properties=species:S:1:pos:R:3:initial_magmoms:R:1 pbc="T T T"
Si       1.46518776      -1.26827424      -1.30966318       0.00000000
Si       1.35439947       1.34332227       1.36469885       0.00000000
Si      -1.36262592      -1.37160171       1.36167188       0.00000000
Si      -1.36055709       1.37336103      -1.39106437       0.00000000
Si       0.09370008      -2.48572368      -2.69967221       0.00000000
Si      -2.70762606       2.69907381       0.00372179       0.00000000
Si       2.71264338       2.70513706      -0.00538318       0.00000000
Si      -0.00048870       2.70232644       2.72301356       0.00000000
Si       2.71467963      -0.01326006       2.72153447       0.00000000
Si      -2.71531494      -0.01321119       2.72253199       0.00000000
