10
Lattice="16.28999089631971 0.0 0.0 0.0 16.28999089631971 0.0 0.0 0.0 34.397273925272025" Properties=species:S:1:pos:R:3:initial_magmoms:R:1 pbc="T T T"
Si       1.30565979      -1.42804656      -1.37169526       0.00000000
Si      -1.43799975       1.30316742      -1.37045695       0.00000000
Si       1.44801810       1.25897265       1.45273528       0.00000000
Si      -0.99036684      -1.96143003       1.09073817       0.00000000
Si       2.63536362      -0.07876215      -2.74641747       0.00000000
Si      -0.07610688       2.63410009      -2.74813734       0.00000000
Si       2.75801103      -2.74053186       0.12610048       0.00000000
Si       2.68009596       2.81554961       0.16785879       0.00000000
Si      -0.07902279      -2.79425628      -2.74314973       0.00000000
Si      -2.53156374       2.98889476       0.04970409       0.00000000
