10
Lattice="16.28999089631971 0.0 0.0 0.0 16.28999089631971 0.0 0.0 0.0 34.397273925272025" Properties=species:S:1:pos:R:3:initial_magmoms:R:1 pbc="T T T"
Si      -1.98764064      -0.83004066       0.87744055       0.00000000
Si       1.00015713      -0.03943809       2.17535361       0.00000000
Si      -0.38939616       2.44850103      -0.22241290       0.00000000
Si       0.21224241       1.89405459      -2.44320534       0.00000000
Si      -2.41083855       1.19368233       2.10862286       0.00000000
Si      -0.27295524       1.75617603       2.96931193       0.00000000
Si      -3.51139095      -0.79830774      -0.88108666       0.00000000
Si       3.29856210      -0.14603985       1.73895516       0.00000000
Si       3.42777438       1.47945780       0.04863777       0.00000000
Si      -2.22614253      -1.32634809      -2.80520245       0.00000000
