10
Lattice="16.28999089631971 0.0 0.0 0.0 16.28999089631971 0.0 0.0 0.0 34.397273925272025" Properties=species:S:1:pos:R:3:initial_magmoms:R:1 pbc="T T T"
Si      -1.48910148      -1.25306427      -1.31834647       0.00000000
Si       1.32616890      -1.33663089       1.45102573       0.00000000
Si      -1.37318184       1.36572102       1.44968424       0.00000000
Si       1.17553527       1.39072617      -1.64780374       0.00000000
Si      -2.30141862       0.53729307      -2.77634453       0.00000000
Si      -0.08687457      -2.74840712      -2.52734253       0.00000000
Si       2.77192269      -2.60003780       0.05215318       0.00000000
Si      -0.61177095       2.25057753      -3.01857027       0.00000000
Si       2.67913485       2.71968066      -0.02405403       0.00000000
Si      -2.74703157      -2.66840693       0.06534454       0.00000000
