10
Lattice="16.28999089631971 0.0 0.0 0.0 16.28999089631971 0.0 0.0 0.0 34.397273925272025" Properties=species:S:1:pos:R:3:initial_magmoms:R:1 pbc="T T T"
Si       1.93316688       0.59041476      -1.27053282       0.00000000
Si      -1.73221344       1.67809806      -0.12327990       0.00000000
Si      -0.72164700      -2.02939680      -1.10470347       0.00000000
Si       0.94622094       1.15241976       1.91861222       0.00000000
Si       0.59297229       1.88696844      -2.65667494       0.00000000
Si      -2.13905619      -0.85370026      -2.63689649       0.00000000
Si       2.85175251       2.12097429       0.33564879       0.00000000
Si      -0.55592883       3.47600907      -1.16438277       0.00000000
Si      -3.54688686       0.50862267      -1.17188138       0.00000000
Si      -1.95372486      -3.58597376       0.18017302       0.00000000
