10
Lattice="16.28999089631971 0.0 0.0 0.0 16.28999089631971 0.0 0.0 0.0 34.397273925272025" Properties=species:S:1:pos:R:3:initial_magmoms:R:1 pbc="T T T"
Si      -0.44859402       1.74107520       1.55214346       0.00000000
Si       1.17628461       1.79791101      -1.04110287       0.00000000
Si      -1.81467342      -1.16947539      -1.04860148       0.00000000
Si       1.73221344      -1.67809806       0.12327990       0.00000000
Si       2.67843438      -0.52567830       2.04189212       0.00000000
Si       2.32518573       0.20887038      -2.53339504       0.00000000
Si       1.27058742       1.19532762       3.11673873       0.00000000
Si      -0.40684275      -2.53179832      -2.51361659       0.00000000
Si      -0.37869363       2.91011076      -2.51251588       0.00000000
Si       1.01056644      -3.70749486      -0.98142357       0.00000000
