10
Lattice="16.28999089631971 0.0 0.0 0.0 16.28999089631971 0.0 0.0 0.0 34.397273925272025" Properties=species:S:1:pos:R:3:initial_magmoms:R:1 pbc="T T T"
Si      -2.17882008       0.71299701      -0.38782948       0.00000000
Si       0.53126577      -1.26881181      -1.91561965       0.00000000
Si       0.71553257      -1.56946005       1.62176358       0.00000000
Si       0.91352432       2.15516700       0.41775513       0.00000000
Si       2.93587244      -0.73554237       1.65113887       0.00000000
Si      -1.76098158       1.64937879      -2.66871399       0.00000000
Si       2.83857227       1.65165939       1.60170996       0.00000000
Si      -0.48050613       2.92206762       2.18154513       0.00000000
Si      -2.61443097       2.19437703       1.40626454       0.00000000
Si      -0.50191119      -3.34988603      -1.51678304       0.00000000
