10
Lattice="16.28999089631971 0.0 0.0 0.0 16.28999089631971 0.0 0.0 0.0 34.397273925272025" Properties=species:S:1:pos:R:3:initial_magmoms:R:1 pbc="T T T"
Si       1.03317696       2.08107422      -0.39883661       0.00000000
Si      -2.34812205       0.22689429       0.29172344       0.00000000
Si       0.89288748      -0.37839717       2.17813979       0.00000000
Si       0.46436274      -1.87473141      -1.47337365       0.00000000
Si       0.33515046      -3.50022906       0.21694373       0.00000000
Si       3.28302863       1.37567812      -0.50866717       0.00000000
Si       0.50191119       3.34988603       1.51678304       0.00000000
Si       1.21744376       1.78042598       3.13854662       0.00000000
Si      -3.35280780      -0.90568818      -1.74442432       0.00000000
Si      -3.23636688      -1.59801318       1.44730051       0.00000000
