10
Lattice="16.28999089631971 0.0 0.0 0.0 16.28999089631971 0.0 0.0 0.0 34.397273925272025" Properties=species:S:1:pos:R:3:initial_magmoms:R:1 pbc="T T T"
Si      -1.17628461      -1.79791101       1.04110287       0.00000000
Si      -1.55497824       1.11219975      -1.47141301       0.00000000
Si       1.14890112      -1.58904063      -1.49229217       0.00000000
Si       1.97666118       1.03627206       1.43367918       0.00000000
Si      -1.62487863      -0.05683581       2.59324633       0.00000000
Si       0.55592883      -3.47600907       1.16438277       0.00000000
Si      -0.21159081       2.46057192      -2.85163879       0.00000000
Si       2.50145047      -0.25309773      -2.85717676       0.00000000
Si       2.48909571      -2.88559431      -0.10615005       0.00000000
Si      -2.88337887       2.52481968      -0.08434216       0.00000000
