10
Lattice="16.28999089631971 0.0 0.0 0.0 16.28999089631971 0.0 0.0 0.0 34.397273925272025" Properties=species:S:1:pos:R:3:initial_magmoms:R:1 pbc="T T T"
Si      -0.53307396      -0.95184099       2.07267769       0.00000000
Si       0.43561089      -1.48138002      -1.79409402       0.00000000
Si      -1.60783929       1.35045729      -1.11361237       0.00000000
Si       2.13392484       0.72769059       0.77528059       0.00000000
Si       1.87897005       3.03963255       0.66689472       0.00000000
Si       3.52795529      -0.03921003      -0.98850941       0.00000000
Si       2.61443097      -2.19437703      -1.40626454       0.00000000
Si      -0.99673623      -3.37056390      -1.45844523       0.00000000
Si      -2.94826194       2.40816699       0.54086304       0.00000000
Si      -3.11790600      -0.13082499      -2.37220932       0.00000000
