10
Lattice="16.28999089631971 0.0 0.0 0.0 16.28999089631971 0.0 0.0 0.0 34.397273925272025" Properties=species:S:1:pos:R:3:initial_magmoms:R:1 pbc="T T T"
Si       0.58864308      -2.25205992      -0.23225052       0.00000000
Si       1.18246896       0.44157303       1.97433583       0.00000000
Si      -2.26800783      -0.03613122       0.67411815       0.00000000
Si       0.24524304       1.78518852      -1.58832941       0.00000000
Si       0.05219316       3.46828761       0.08857303       0.00000000
Si      -0.68802444      -2.71868534      -2.14824855       0.00000000
Si       1.26293831       2.75201631       2.05155776       0.00000000
Si      -0.19777689      -0.41604660       3.67339013       0.00000000
Si      -2.26009089       0.41195781       2.95403954       0.00000000
Si      -3.34616148       1.71418041      -0.46601453       0.00000000
