10
Lattice="16.28999089631971 0.0 0.0 0.0 16.28999089631971 0.0 0.0 0.0 34.397273925272025" Properties=species:S:1:pos:R:3:initial_magmoms:R:1 pbc="T T T"
Si       0.00791694       0.44808903       2.27992138       0.00000000
Si      -1.07815365       1.75031163      -1.14013268       0.00000000
Si       2.26800783       0.03613122      -0.67411815       0.00000000
Si      -1.07499339      -2.02282704      -0.61815376       0.00000000
Si      -0.57596553      -1.74177567      -2.87306831       0.00000000
Si      -1.37106414       0.49754547      -3.11656675       0.00000000
Si       2.07023094      -0.37991538       2.99927198       0.00000000
Si      -2.10543363      -0.25111035       3.02008234       0.00000000
Si       3.45047679       0.47770425       1.30021768       0.00000000
Si       2.85665091      -2.21592870      -0.90636867       0.00000000
