10
Lattice="16.28999089631971 0.0 0.0 0.0 16.28999089631971 0.0 0.0 0.0 34.397273925272025" Properties=species:S:1:pos:R:3:initial_magmoms:R:1 pbc="T T T"
Si       1.35469269      -1.35466011       1.35772996       0.00000000
Si      -1.35990549       1.35839052       1.35724839       0.00000000
Si       1.36226754       1.35179307      -1.36356030       0.00000000
Si      -1.34491869      -1.37350764      -1.36079475       0.00000000
Si      -2.57748525       0.05828562      -2.72359487       0.00000000
Si       2.71292031       2.71272483      -0.00240781       0.00000000
Si       2.71192662       0.00180819       2.71490955       0.00000000
Si       2.71319724      -2.71453302      -0.00333654       0.00000000
Si      -0.00293220      -2.71345788       2.71470317       0.00000000
Si      -0.00237834       2.71586880       2.71477196       0.00000000
