10
Lattice="16.28999089631971 0.0 0.0 0.0 16.28999089631971 0.0 0.0 0.0 34.397273925272025" Properties=species:S:1:pos:R:3:initial_magmoms:R:1 pbc="T T T"
Si      -1.35723393      -1.35646830      -1.35717960       0.00000000
Si      -1.35708732       1.35842310       1.35687002       0.00000000
Si       1.35749340      -1.35814617       1.35735158       0.00000000
Si       1.35864197       1.35824391      -1.35666364       0.00000000
Si      -2.71192662      -0.00180819      -2.71490955       0.00000000
Si       0.00099369       2.71091664      -2.71731736       0.00000000
Si      -2.71430496       2.71406061      -0.00013759       0.00000000
Si       0.00117288       2.71591767       2.71288011       0.00000000
Si       2.71533190       2.71437012      -0.00010319       0.00000000
Si       2.71136691       0.00105885      -2.71859006       0.00000000
