10
Lattice="16.28999089631971 0.0 0.0 0.0 16.28999089631971 0.0 0.0 0.0 34.397273925272025" Properties=species:S:1:pos:R:3:initial_magmoms:R:1 pbc="T T T"
Si      -1.34338743      -1.34837217       1.38022578       0.00000000
Si      -1.35532800       1.35966114      -1.36089451       0.00000000
Si       1.36145304      -1.35791811      -1.36082571       0.00000000
Si       1.36044306       1.35294966       1.37424066       0.00000000
Si       0.21159081      -2.46057192       2.85163879       0.00000000
Si       2.71304128      -2.71366965      -0.00553796       0.00000000
Si      -2.71324611       2.71420722       0.00030958       0.00000000
Si      -2.71153566      -2.71982727      -0.00055036       0.00000000
Si      -2.71269225       0.00022806      -2.71876205       0.00000000
Si       0.00242721      -2.71435383      -2.71886524       0.00000000
