10
Lattice="16.28999089631971 0.0 0.0 0.0 16.28999089631971 0.0 0.0 0.0 34.397273925272025" Properties=species:S:1:pos:R:3:initial_magmoms:R:1 pbc="T T T"
Si      -1.35096228       1.35060390      -1.36058493       0.00000000
Si       1.35968950       1.33706691       1.37403427       0.00000000
Si       1.36434519      -1.36560699      -1.35590690       0.00000000
Si      -1.35110889      -1.37085237       1.37695804       0.00000000
Si       2.14647533      -0.54594306       2.66131857       0.00000000
Si       0.35268080      -2.45985516       2.70727335       0.00000000
Si      -2.71041165       2.70589932      -0.00024078       0.00000000
Si       0.00502528       2.70604593      -2.71645743       0.00000000
Si      -2.70922248      -0.00689067      -2.71659502       0.00000000
Si       2.72384180       2.70407484       0.00347413       0.00000000
