10
Lattice="16.28999089631971 0.0 0.0 0.0 16.28999089631971 0.0 0.0 0.0 34.397273925272025" Properties=species:S:1:pos:R:3:initial_magmoms:R:1 pbc="T T T"
Si       1.35676152      -1.35717868      -1.35766116       0.00000000
Si       1.35628911       1.35878038       1.35704201       0.00000000
Si      -1.35957155      -1.35667369       1.35748917       0.00000000
Si      -1.35920339       1.35850997      -1.35724839       0.00000000
Si       2.71381626      -2.71420084       0.00055036       0.00000000
Si      -0.00236205      -2.71446148      -2.71490955       0.00000000
Si       2.71450044       0.00084100      -2.71518473       0.00000000
Si      -2.71496375       0.00098378      -2.71477196       0.00000000
Si       2.71450044       2.71555656      -0.00020638       0.00000000
Si      -0.00128691       2.71619187      -2.71404962       0.00000000
