10
Lattice="16.28999089631971 0.0 0.0 0.0 16.28999089631971 0.0 0.0 0.0 34.397273925272025" Properties=species:S:1:pos:R:3:initial_magmoms:R:1 pbc="T T T"
Si       1.37759643       1.79760150       0.49232846       0.00000000
Si       0.81575433      -0.61488234      -2.19238027       0.00000000
Si      -2.04801138       1.34211681       0.19303761       0.00000000
Si      -0.75657276      -1.83725136       1.61144439       0.00000000
Si      -1.27298205      -1.70455302      -2.31094774       0.00000000
Si      -2.20144689      -2.45602701      -0.22867320       0.00000000
Si       0.64896102       1.36787130       2.94925831       0.00000000
Si      -1.22592024       2.81496087       1.81249657       0.00000000
Si       0.16729830       3.87693855       0.25705097       0.00000000
Si       3.83204072      -0.47133486      -0.69241751       0.00000000
