10
Lattice="16.28999089631971 0.0 0.0 0.0 16.28999089631971 0.0 0.0 0.0 34.397273925272025" Properties=species:S:1:pos:R:3:initial_magmoms:R:1 pbc="T T T"
Si       1.34881362       1.35198855      -1.39983224       0.00000000
Si      -1.36498797      -1.36151820      -1.40210246       0.00000000
Si       1.42342120      -1.40504508       1.49745176       0.00000000
Si      -1.32025563       1.53279356       1.51217380       0.00000000
Si      -2.55233349      -0.02378340       2.79705029       0.00000000
Si       2.52357742       0.19468179       2.83650398       0.00000000
Si      -2.69469180      -2.71080261      -0.02738025       0.00000000
Si       2.71257237       2.70903419      -0.01795539       0.00000000
Si       2.70511318      -2.73035061      -0.02782741       0.00000000
Si      -2.73766482       2.70849010      -0.02001922       0.00000000
