10
Lattice="16.28999089631971 0.0 0.0 0.0 16.28999089631971 0.0 0.0 0.0 34.397273925272025" Properties=species:S:1:pos:R:3:initial_magmoms:R:1 pbc="T T T"
Si      -0.44093772      -0.82217259       2.12685343       0.00000000
Si       2.26487593      -0.61090758      -0.16400629       0.00000000
Si       0.17394462       2.35488240      -0.03357176       0.00000000
Si      -1.72009368      -0.94047057      -1.32405501       0.00000000
Si      -1.22407947       0.57941901      -3.01165500       0.00000000
Si      -0.57159981      -2.87384922      -2.01647252       0.00000000
Si       2.94343263       0.56637072      -2.02190729       0.00000000
Si      -0.96084936      -3.04956945       1.69578655       0.00000000
Si      -2.12876091       2.93909067       0.00075674       0.00000000
Si       3.12761225       0.21383883       1.83268778       0.00000000
