10
Lattice="16.28999089631971 0.0 0.0 0.0 16.28999089631971 0.0 0.0 0.0 34.397273925272025" Properties=species:S:1:pos:R:3:initial_magmoms:R:1 pbc="T T T"
Si       1.65348387      -1.39067730      -0.93756702       0.00000000
Si       1.56278115       1.64854800       0.64608436       0.00000000
Si      -1.32097239       0.80094672      -1.80217738       0.00000000
Si      -1.30087053      -1.32955722       1.51045394       0.00000000
Si       2.84726394       0.17759358       1.92476933       0.00000000
Si      -2.83849992       0.28303875       2.25078688       0.00000000
Si      -1.59998751      -1.26866520      -3.01915361       0.00000000
Si       2.09442159      -0.56850471      -3.06442045       0.00000000
Si      -2.48878620      -2.88469836       0.09662200       0.00000000
Si       3.65715387      -1.22551299       0.25395522       0.00000000
