10
Lattice="16.28999089631971 0.0 0.0 0.0 16.28999089631971 0.0 0.0 0.0 34.397273925272025" Properties=species:S:1:pos:R:3:initial_magmoms:R:1 pbc="T T T"
Si      -1.35545715      -1.35826020       1.35800513       0.00000000
Si      -1.35749340       1.35814617      -1.35735158       0.00000000
Si       1.35813986      -1.35723393      -1.35766116       0.00000000
Si       1.35898694       1.35785295       1.36020656       0.00000000
Si      -0.00386891      -2.71401174       2.71329288       0.00000000
Si      -2.71448298      -2.71469592      -0.00003440       0.00000000
Si      -2.71472733       0.00167787      -2.71453118       0.00000000
Si       0.00099395      -2.71505430      -2.71425601       0.00000000
Si       0.00114857       2.71639008      -2.71401522       0.00000000
Si       2.71527443       2.71523349      -0.00017199       0.00000000
