10
Lattice="16.28999089631971 0.0 0.0 0.0 16.28999089631971 0.0 0.0 0.0 34.397273925272025" Properties=species:S:1:pos:R:3:initial_magmoms:R:1 pbc="T T T"
Si       0.67855669       1.17727830      -1.85790099       0.00000000
Si       0.86273632       0.82474641       1.99669407       0.00000000
Si       0.47478671      -2.29291524      -0.11942740       0.00000000
Si      -2.26487593       0.61090758       0.16400629       0.00000000
Si      -2.70581365      -0.21126501       2.29085972       0.00000000
Si      -0.70214365      -0.04610070       3.48238196       0.00000000
Si      -1.75925062      -3.12214140       0.08895140       0.00000000
Si      -2.09093131       2.96578998       0.13043454       0.00000000
Si       0.86731870      -2.52296262      -2.46683628       0.00000000
Si      -1.19055043       1.08372483      -3.28404717       0.00000000
