10
Lattice="16.28999089631971 0.0 0.0 0.0 16.28999089631971 0.0 0.0 0.0 34.397273925272025" Properties=species:S:1:pos:R:3:initial_magmoms:R:1 pbc="T T T"
Si      -0.46135886       0.92836710      -2.10704059       0.00000000
Si       0.83489508      -2.28490056      -0.17883153       0.00000000
Si       2.06892774       1.33157718       0.13201681       0.00000000
Si      -1.55423609       0.74285658       1.79261910       0.00000000
Si       1.81291410       0.49145301      -2.49634915       0.00000000
Si       2.20265235      -1.74869892      -2.03982828       0.00000000
Si       0.17998658       1.77841188       2.98374989       0.00000000
Si       1.30287420       3.15983646       1.38834355       0.00000000
Si      -1.16848822      -3.49192440      -0.35178112       0.00000000
Si      -1.57668371      -0.60448932      -3.49115327       0.00000000
