10
Lattice="10.86 0.0 0.0 0.0 10.86 0.0 0.0 0.0 10.86" Properties=species:S:1:pos:R:3:initial_magmoms:R:1 pbc="T T T"
Si      -1.29073272       1.38022998       1.31109522       0.00000000
Si      -1.29073272      -1.33477002      -1.40390478       0.00000000
Si       1.42426728      -1.33477002       1.31109522       0.00000000
Si       0.00733050       2.59772286      -2.68743732       0.00000000
Si      -2.64823272       0.02272998       2.66859522       0.00000000
Si      -2.64823272      -2.69227002      -0.04640478       0.00000000
Si       0.06676728      -2.69227002       2.66859522       0.00000000
Si       2.74228032       2.63307216      -0.07878930       0.00000000
Si      -2.64823272       2.73772998      -0.04640478       0.00000000
Si       0.06676728       2.73772998       2.66859522       0.00000000
