10
Lattice="16.290000149 0.0 0.0 0.0 16.290000149 0.0 0.0 0.0 29.1751946751" Properties=species:S:1:pos:R:3:initial_magmoms:R:1 pbc="T T T"
Si      -1.07647579      -1.16349697       1.70934548       0.00000000
Si       0.88324381      -1.77828158      -1.28102445       0.00000000
Si       1.87264955       1.46087092       0.15357822       0.00000000
Si      -1.59645259       1.30445434      -1.21068305       0.00000000
H        0.48180933       2.31111119       1.79940931       0.00000000
H       -1.22890132      -0.36616662       2.98415561       0.00000000
H        2.59411736       1.55501083       1.47451434       0.00000000
Si       2.00523386      -0.33627447      -2.82987718       0.00000000
Si      -3.28575819      -1.08027136       0.90014228       0.00000000
Si      -0.28277811       2.66022218      -2.59956820       0.00000000
