10
Lattice="16.290000149 0.0 0.0 0.0 16.290000149 0.0 0.0 0.0 29.1751946751" Properties=species:S:1:pos:R:3:initial_magmoms:R:1 pbc="T T T"
Si      -1.33806061       1.15411393       1.55719684       0.00000000
Si      -1.30582270      -1.44736651      -1.37224945       0.00000000
Si       1.42739497      -1.36686133       1.33419916       0.00000000
Si       0.83295658       1.99717031      -1.09158203       0.00000000
H        1.90237880       0.27800514      -1.89034255       0.00000000
Si      -0.91158841       3.54006138      -0.63801483       0.00000000
Si      -2.74440891       2.51872724       0.30414849       0.00000000
Si      -2.70760979      -0.02280600      -2.59148083       0.00000000
Si       0.08368173       2.61421922       2.78235663       0.00000000
Si      -2.63386496      -2.82901917       0.00393282       0.00000000
