10
Lattice="16.290000149 0.0 0.0 0.0 16.290000149 0.0 0.0 0.0 29.1751946751" Properties=species:S:1:pos:R:3:initial_magmoms:R:1 pbc="T T T"
Si       1.37459908      -1.35065278      -1.33695330       0.00000000
Si      -1.30575754       1.29916009      -1.45735932       0.00000000
Si       1.37316556       1.35894439       1.34042514       0.00000000
Si      -1.34991973      -1.37621179       1.36210231       0.00000000
Si      -2.87621130       0.01923849       2.40368594       0.00000000
Si      -2.67120164       2.67576284      -0.20303018       0.00000000
Si       2.69685839      -0.01749546       2.67241866       0.00000000
Si       0.00518022      -2.68962563      -2.70564920       0.00000000
Si      -2.71235018      -2.69250896      -0.02835829       0.00000000
Si       2.71917986       0.02391372      -2.69710087       0.00000000
