10
Lattice="16.290000149 0.0 0.0 0.0 16.290000149 0.0 0.0 0.0 29.1751946751" Properties=species:S:1:pos:R:3:initial_magmoms:R:1 pbc="T T T"
Si       1.34656399       1.35733168       1.36259829       0.00000000
Si      -1.35208630       1.36748035      -1.35644233       0.00000000
Si      -1.36114354      -1.34460919       1.37135085       0.00000000
Si       1.37769418      -1.34907265      -1.35075316       0.00000000
Si      -0.05045013      -2.75333583      -2.59366022       0.00000000
Si       2.67786425      -2.69772176       0.06862006       0.00000000
Si      -0.02278971       2.72088614       2.69949324       0.00000000
Si      -2.67237452       0.02640609      -2.75057317       0.00000000
Si       2.69257412      -0.00068418       2.73254873       0.00000000
Si       2.69754257       2.73248463       0.01467512       0.00000000
