10
Lattice="16.290000149 0.0 0.0 0.0 16.290000149 0.0 0.0 0.0 29.1751946751" Properties=species:S:1:pos:R:3:initial_magmoms:R:1 pbc="T T T"
Si       1.41952690      -1.33020883      -1.30208894       0.00000000
Si       1.37321443       1.32667390       1.36359025       0.00000000
Si      -1.35097858      -1.37515294       1.34792317       0.00000000
Si      -1.35047359       1.31901760      -1.40863675       0.00000000
Si       0.10764432      -2.69101028      -2.64672990       0.00000000
Si       0.00447975       2.70547580       2.68697708       0.00000000
Si       2.75384082       2.64401363      -0.00002918       0.00000000
Si      -2.72033228      -0.01159848       2.68481811       0.00000000
Si      -2.71336016       2.69234606      -0.05870049       0.00000000
Si       0.01756062       2.66839976      -2.75930822       0.00000000
