10
Lattice="16.290000149 0.0 0.0 0.0 16.290000149 0.0 0.0 0.0 29.1751946751" Properties=species:S:1:pos:R:3:initial_magmoms:R:1 pbc="T T T"
Si       1.74674414       0.33647158      -1.49018142       0.00000000
Si      -1.92068876       1.05913020      -0.77728554       0.00000000
Si       0.64052281       0.67214821       2.14595227       0.00000000
Si      -0.04717584      -2.14935312       0.97296357       0.00000000
Si       1.86072527      -1.96910427      -1.72434153       0.00000000
Si      -0.60240421      -1.11733274       2.97715357       0.00000000
H        1.32791194       2.98103582       0.00460968       0.00000000
Si      -0.76172041       2.50232158      -2.28024569       0.00000000
Si      -2.89518915       1.46183040       1.37403497       0.00000000
Si       2.15475977      -2.86503799       0.52130238       0.00000000
