10
Lattice="16.290000149 0.0 0.0 0.0 16.290000149 0.0 0.0 0.0 29.1751946751" Properties=species:S:1:pos:R:3:initial_magmoms:R:1 pbc="T T T"
Si       1.34552143       1.32862870      -1.38193561       0.00000000
Si      -1.33138171      -1.35966115      -1.37893640       0.00000000
Si      -1.35454609       1.38841300       1.33003877       0.00000000
Si       1.36990756      -1.34908894       1.36321097       0.00000000
Si      -2.62686026      -2.67465512       0.08983042       0.00000000
Si       2.70835913       2.69627195      -0.01861377       0.00000000
Si      -2.69607647       0.03495834       2.71475186       0.00000000
Si      -0.03880278       2.66836718      -2.75547752       0.00000000
Si       0.01055429       2.71792136       2.70903353       0.00000000
Si       2.73092079       0.00500103       2.71647320       0.00000000
