10
Lattice="16.290000149 0.0 0.0 0.0 16.290000149 0.0 0.0 0.0 29.1751946751" Properties=species:S:1:pos:R:3:initial_magmoms:R:1 pbc="T T T"
Si       1.34566804       1.37681452      -1.31267953       0.00000000
Si      -1.36423864       1.36733374       1.34369277       0.00000000
Si       1.54131094      -1.31867551       1.19282783       0.00000000
Si      -1.40761891      -1.32792823      -1.35457511       0.00000000
Si       2.59973741      -2.72124452      -0.33793628       0.00000000
Si      -0.05540229       2.71700912      -2.67294381       0.00000000
Si       2.57305439       2.81391508       0.11244120       0.00000000
Si       2.64595214       0.03336192      -2.75069570       0.00000000
Si      -2.70764237       0.07586253       2.71661908       0.00000000
Si      -2.78575293      -2.64629423       0.00889843       0.00000000
