10
Lattice="16.290000149 0.0 0.0 0.0 16.290000149 0.0 0.0 0.0 29.1751946751" Properties=species:S:1:pos:R:3:initial_magmoms:R:1 pbc="T T T"
Si       1.37052658      -1.34609158      -1.33905391       0.00000000
Si       1.37714032       1.33641532       1.34518070       0.00000000
Si      -1.35117406      -1.36593280       1.35416666       0.00000000
Si      -1.34601013       1.35801586      -1.36995044       0.00000000
Si      -0.01470987      -2.69703758      -2.66392868       0.00000000
Si       0.00086337       2.70239699       2.65928982       0.00000000
Si      -2.72258030      -0.00982287       2.68697708       0.00000000
Si       2.74103688       0.01125639      -2.67807864       0.00000000
Si       2.73326655       2.68952789      -0.01493770       0.00000000
Si      -2.69257412       0.00068418      -2.73254873       0.00000000
