10
Lattice="16.290000149 0.0 0.0 0.0 16.290000149 0.0 0.0 0.0 29.1751946751" Properties=species:S:1:pos:R:3:initial_magmoms:R:1 pbc="T T T"
Si       0.61266691       0.51189696      -2.18300477       0.00000000
Si      -2.29954529      -0.05758515       0.45314912       0.00000000
Si       0.77136409       2.04498146       0.88021562       0.00000000
Si       1.22204323      -1.86708488       0.95359124       0.00000000
Si       1.69999184       1.00258435       2.71405166       0.00000000
Si       3.03451752      -0.54319006       1.55751777       0.00000000
Si       1.30738654      -1.53521034      -2.95328826       0.00000000
Si      -0.23949558      -0.02316438       3.61638208       0.00000000
Si      -2.44286471       0.35852661       2.81170104       0.00000000
Si      -3.16547283       2.01741878      -0.34021195       0.00000000
