10
Lattice="16.290000149 0.0 0.0 0.0 16.290000149 0.0 0.0 0.0 29.1751946751" Properties=species:S:1:pos:R:3:initial_magmoms:R:1 pbc="T T T"
Si      -1.82816156      -1.29334456       0.63946192       0.00000000
Si       1.81622099      -1.46246734      -0.16346862       0.00000000
Si      -1.03566934       0.82520254      -1.95234568       0.00000000
Si       0.64982440       1.77254750       1.58462152       0.00000000
H        0.01268991      -1.12544353       3.12054965       0.00000000
Si      -2.56103237       2.09258084      -0.73845335       0.00000000
Si       3.43707600       0.22633326      -0.10538080       0.00000000
Si      -3.47750778       0.36378828       0.54131656       0.00000000
Si      -1.34711785      -1.71035228       2.85100002       0.00000000
Si       2.88184764       1.25835364       1.89880920       0.00000000
