10
Lattice="16.290000149 0.0 0.0 0.0 16.290000149 0.0 0.0 0.0 29.1751946751" Properties=species:S:1:pos:R:3:initial_magmoms:R:1 pbc="T T T"
Si      -1.38992797      -1.34472322      -1.27598881       0.00000000
Si       1.33004740      -1.40906872       1.31072480       0.00000000
Si      -1.42530985       1.35974260       1.27052138       0.00000000
Si       1.29547855       1.31499397      -1.46876683       0.00000000
Si       2.62686026       2.67465512      -0.08983042       0.00000000
Si       2.66500982      -0.03228678       2.65593467       0.00000000
Si      -0.06921621       2.70961346       2.62492144       0.00000000
Si      -0.13087386      -2.74613565      -2.63938942       0.00000000
Si      -2.74996380      -0.02686221       2.65415499       0.00000000
Si       2.68098053      -2.73577520      -0.09528619       0.00000000
