10
Lattice="16.290000149 0.0 0.0 0.0 16.290000149 0.0 0.0 0.0 29.1751946751" Properties=species:S:1:pos:R:3:initial_magmoms:R:1 pbc="T T T"
Si      -1.33374376      -1.33945992       1.32935608       0.00000000
Si       1.49832163      -1.23528700      -1.27994205       0.00000000
Si      -1.24908463       1.37062432      -1.41322017       0.00000000
Si       1.41923368       1.42970815       1.23532442       0.00000000
Si       0.65852326       2.16036353      -2.53616758       0.00000000
H       -0.55314325      -0.45706482      -3.33555333       0.00000000
Si       2.36449352       0.49225122      -2.66306159       0.00000000
Si       0.10010205      -2.68628618       2.59077479       0.00000000
Si      -2.66405033       0.07998390       2.61589463       0.00000000
Si      -2.69430086      -2.62238538      -0.08044185       0.00000000
