10
Lattice="16.290000149 0.0 0.0 0.0 16.290000149 0.0 0.0 0.0 29.1751946751" Properties=species:S:1:pos:R:3:initial_magmoms:R:1 pbc="T T T"
Si       1.35873262       1.36485766       1.33091403       0.00000000
Si       1.36567216      -1.34622190      -1.35078234       0.00000000
Si      -1.32918256       1.36769212      -1.37511445       0.00000000
Si      -1.35612622      -1.37453392       1.35892222       0.00000000
Si       2.69364926      -0.01063737       2.68563502       0.00000000
Si      -0.00286704      -2.69519681      -2.68823161       0.00000000
Si      -2.70733286       0.00399105      -2.68041266       0.00000000
Si      -2.71510319       2.68226255      -0.01727172       0.00000000
Si       0.00930159       2.71151939       2.69628397       0.00000000
Si       2.69671178       2.72277578      -0.05032721       0.00000000
