10
Lattice="16.290000149 0.0 0.0 0.0 16.290000149 0.0 0.0 0.0 29.1751946751" Properties=species:S:1:pos:R:3:initial_magmoms:R:1 pbc="T T T"
H       -1.13704201       0.96394447       0.29326906       0.00000000
H        1.51640028      -1.46903221      -0.63114699       0.00000000
Si       1.47530061       1.20300022      -1.38938112       0.00000000
Si       1.29089780       0.15599304       2.02443758       0.00000000
Si      -1.31195361      -1.70119730      -1.13818269       0.00000000
H       -2.29078453      -0.83829970       2.21509748       0.00000000
Si       2.13076134      -2.77374068      -0.18905526       0.00000000
Si       0.04736480       2.41973291      -2.77184772       0.00000000
Si      -2.60052259      -0.35238528      -2.63828368       0.00000000
Si       0.75085172       2.53713494       2.76131548       0.00000000
