10
Lattice="16.290000149 0.0 0.0 0.0 16.290000149 0.0 0.0 0.0 29.1751946751" Properties=species:S:1:pos:R:3:initial_magmoms:R:1 pbc="T T T"
Si      -1.37459908       1.35065278       1.33695330       0.00000000
Si      -1.36941886      -1.33897285      -1.36869591       0.00000000
Si       1.34458078       1.37456650      -1.36014758       0.00000000
Si       1.33719724      -1.36179514       1.38086196       0.00000000
Si      -2.68035662       2.64981287      -0.12040603       0.00000000
Si       2.65695115      -2.70003494      -0.02541159       0.00000000
Si      -0.00143352       2.70959717       2.67737844       0.00000000
Si       2.72694765       0.01586646       2.69141171       0.00000000
Si      -0.01998783      -2.68563458      -2.73406584       0.00000000
Si      -2.72451881      -0.02555901       2.69905561       0.00000000
