10
Lattice="16.290000149 0.0 0.0 0.0 16.290000149 0.0 0.0 0.0 29.1751946751" Properties=species:S:1:pos:R:3:initial_magmoms:R:1 pbc="T T T"
Si      -0.51616494      -0.91082278      -2.09332022       0.00000000
Si       2.05752476       1.00587493       0.72640400       0.00000000
Si      -1.41415446       1.95043430       0.00446380       0.00000000
Si      -0.67793442      -1.76298527       1.50961210       0.00000000
H        1.45313317       1.56996505      -2.37745744       0.00000000
Si      -1.94059514      -0.33638850       2.83781838       0.00000000
H        2.85413835      -0.46198440      -1.92150750       0.00000000
Si       0.25723539       1.20505276      -3.26864294       0.00000000
Si       1.05063985       2.24826437       2.56811734       0.00000000
Si      -3.08076483       1.16409970       1.45382913       0.00000000
