10
Lattice="16.290000149 0.0 0.0 0.0 16.290000149 0.0 0.0 0.0 29.1751946751" Properties=species:S:1:pos:R:3:initial_magmoms:R:1 pbc="T T T"
Si       1.38795688       1.35941680      -1.30322677       0.00000000
Si       1.38293956      -1.34586352       1.33499856       0.00000000
Si      -1.31722570       1.37099899       1.38891432       0.00000000
Si      -1.33061608      -1.34574949      -1.41441344       0.00000000
Si       0.01751175       2.71949009      -2.61716084       0.00000000
Si       0.01624113      -2.68998401       2.67918730       0.00000000
Si      -2.67636720      -2.69348636      -0.04498815       0.00000000
Si      -2.66346227       2.73156913       0.03360982       0.00000000
Si       2.71182890       0.00755856      -2.68756058       0.00000000
Si      -2.69273540       0.02283858       2.73928820       0.00000000
