10
Lattice="16.290000149 0.0 0.0 0.0 16.290000149 0.0 0.0 0.0 29.1751946751" Properties=species:S:1:pos:R:3:initial_magmoms:R:1 pbc="T T T"
Si      -1.34841947      -1.35351982       1.35708418       0.00000000
Si      -1.36848875       1.35664750      -1.34086277       0.00000000
Si       1.33089296      -1.34965909      -1.39043143       0.00000000
Si       1.31452477       1.36666585       1.39384493       0.00000000
Si       0.03008644       2.69105915      -2.67556958       0.00000000
Si       2.68309492      -2.70858719      -0.03142168       0.00000000
Si      -2.69218158       0.01190799       2.70836250       0.00000000
Si       2.69003446       2.71482626       0.04347104       0.00000000
Si      -2.71976055      -2.70179426       0.00224649       0.00000000
Si       2.70371806       0.01695789       2.72362112       0.00000000
