10
Lattice="16.290000149 0.0 0.0 0.0 16.290000149 0.0 0.0 0.0 29.1751946751" Properties=species:S:1:pos:R:3:initial_magmoms:R:1 pbc="T T T"
Si       1.35356869       1.39779604      -1.31977202       0.00000000
Si      -1.35205372       1.36938628       1.35822201       0.00000000
Si       1.37723806      -1.34723188       1.35880552       0.00000000
Si      -1.36283770      -1.36764325      -1.36332184       0.00000000
Si       2.73575891       0.04129515      -2.64360815       0.00000000
Si      -2.70835913      -2.69627195       0.01861377       0.00000000
Si       2.69039126       2.72269433       0.08507487       0.00000000
Si      -2.69780484       0.02164941       2.72764730       0.00000000
Si       0.02256165      -2.69127092       2.73508698       0.00000000
Si      -2.71733655       2.71726976      -0.01423749       0.00000000
