10
Lattice="16.290000149 0.0 0.0 0.0 16.290000149 0.0 0.0 0.0 29.1751946751" Properties=species:S:1:pos:R:3:initial_magmoms:R:1 pbc="T T T"
Si       1.38919329      -1.34970796       1.32977620       0.00000000
Si       1.37550969       1.34816041      -1.35037389       0.00000000
Si      -1.31452477      -1.36666585      -1.39384493       0.00000000
Si      -1.37020241       1.34021089       1.37995753       0.00000000
Si       0.02672049      -2.69847110       2.68408873       0.00000000
Si      -2.66294424      -2.72018567      -0.03676075       0.00000000
Si      -2.70324570       2.70716834       0.00895678       0.00000000
Si       0.02927313       2.70873055      -2.70567838       0.00000000
Si      -2.68301352      -0.01001835      -2.73470770       0.00000000
Si       2.70897653      -2.71282259      -0.06010090       0.00000000
