10
Lattice="16.290000149 0.0 0.0 0.0 16.290000149 0.0 0.0 0.0 29.1751946751" Properties=species:S:1:pos:R:3:initial_magmoms:R:1 pbc="T T T"
Si      -0.34577154       0.87949711       2.13521580       0.00000000
Si      -1.85717405      -0.92761777      -1.10883245       0.00000000
Si       1.05129145       1.77262895      -1.17745251       0.00000000
Si       1.57146373      -1.80291206      -0.08291590       0.00000000
Si       2.10971792       0.37005993      -2.70821662       0.00000000
Si      -0.67763143      -2.37842147      -2.52391692       0.00000000
Si       1.27508347       2.56829771       2.19330361       0.00000000
Si       3.34844211      -0.97884982      -1.32318260       0.00000000
Si       2.24213933      -2.16590213       2.06537038       0.00000000
Si      -3.16009713      -2.16603245       0.38884699       0.00000000
