10
Lattice="16.290000149 0.0 0.0 0.0 16.290000149 0.0 0.0 0.0 29.1751946751" Properties=species:S:1:pos:R:3:initial_magmoms:R:1 pbc="T T T"
H        0.72146782       0.09413991       1.32093611       0.00000000
H       -1.39084021       0.85024027       1.64583108       0.00000000
Si       1.61815087      -0.78402142      -1.51206281       0.00000000
Si      -1.87264955      -1.46087092      -0.15357822       0.00000000
Si      -0.33444999       1.94932658      -1.37593136       0.00000000
H        1.83200600       1.76236625       0.25855058       0.00000000
H        2.48588660       1.34597755       0.19416092       0.00000000
Si      -0.78799618       0.93644695       3.04460662       0.00000000
Si       0.13258431      -1.79714540      -2.98345541       0.00000000
Si      -0.98940574      -3.23915250      -1.43460267       0.00000000
