10
Lattice="16.290000149 0.0 0.0 0.0 16.290000149 0.0 0.0 0.0 29.1751946751" Properties=species:S:1:pos:R:3:initial_magmoms:R:1 pbc="T T T"
Si       1.36062226      -1.35337647       1.35157007       0.00000000
Si      -1.36212094       1.36335572       1.34614348       0.00000000
Si       1.34982199       1.38684590      -1.33628227       0.00000000
Si      -1.34623819      -1.38853029      -1.33943319       0.00000000
Si      -2.78008401      -0.04170403      -2.60085190       0.00000000
Si       0.00050499      -2.71680061       2.69359985       0.00000000
Si       2.79285537       0.05502110      -2.61861960       0.00000000
Si      -0.00343719       2.70750880       2.71087156       0.00000000
Si      -2.72712521       0.01490372       2.69409583       0.00000000
Si      -0.02710656       2.72746405      -2.69488356       0.00000000
