10
Lattice="16.290000149 0.0 0.0 0.0 16.290000149 0.0 0.0 0.0 29.1751946751" Properties=species:S:1:pos:R:3:initial_magmoms:R:1 pbc="T T T"
Si      -1.67547539       1.67716955       0.25782120       0.00000000
Si       0.35435637      -0.23830641       2.35980645       0.00000000
Si       1.63963738       1.05777487      -1.43445680       0.00000000
Si      -1.06486102      -1.69707593      -1.38255413       0.00000000
H        1.88648302      -1.64395423       0.25916325       0.00000000
H        0.56716894       2.46278738       1.40154718       0.00000000
H       -1.08805798       0.04997772       2.80388208       0.00000000
Si      -2.41241870      -0.28777914      -2.75177519       0.00000000
Si       0.34184565       2.47752983      -2.78620192       0.00000000
Si      -3.53826948       0.83305432      -0.99796671       0.00000000
