10
Lattice="16.290000149 0.0 0.0 0.0 16.290000149 0.0 0.0 0.0 29.1751946751" Properties=species:S:1:pos:R:3:initial_magmoms:R:1 pbc="T T T"
Si      -0.55522837       1.03202038       2.00419000       0.00000000
Si      -1.62085501      -1.68880061      -0.05808781       0.00000000
Si       2.20193561      -0.71568487      -0.45166119       0.00000000
Si       0.04717584       2.14935312      -0.97296357       0.00000000
Si       0.68769865       2.82150133       1.17298870       0.00000000
Si       1.90790111       0.18024885      -2.69730510       0.00000000
Si       1.94354363      -2.72173322       0.78746768       0.00000000
Si      -3.43707600      -0.22633326       0.10538080       0.00000000
Si      -0.22379202      -0.79566877      -3.37075612       0.00000000
Si      -2.78725161       1.54621423       1.69000233       0.00000000
