10
Lattice="16.290000149 0.0 0.0 0.0 16.290000149 0.0 0.0 0.0 29.1751946751" Properties=species:S:1:pos:R:3:initial_magmoms:R:1 pbc="T T T"
Si      -1.32028822      -1.34107426      -1.39413084       0.00000000
Si       1.35524656       1.31424463      -1.40015844       0.00000000
Si      -1.37942092       1.35922132       1.33543619       0.00000000
Si       1.35208630      -1.36748035       1.35644233       0.00000000
Si       2.69915528       2.68402187      -0.03751930       0.00000000
Si      -2.69520822      -2.70212006      -0.03323055       0.00000000
Si      -0.01840770       2.71331129       2.68869842       0.00000000
Si       0.09876627      -2.72326448      -2.67807864       0.00000000
Si       2.69865029      -0.01014867       2.71904062       0.00000000
Si      -0.01974348       2.66536982      -2.76055400       0.00000000
