10
Lattice="16.290000149 0.0 0.0 0.0 16.290000149 0.0 0.0 0.0 29.1751946751" Properties=species:S:1:pos:R:3:initial_magmoms:R:1 pbc="T T T"
Si      -1.36062226       1.35337647      -1.35157007       0.00000000
Si      -1.36011727      -1.36342414       1.34202978       0.00000000
Si       1.33064866       1.35604314       1.38354608       0.00000000
Si       1.35088084      -1.36114354      -1.36011840       0.00000000
Si       2.68309334       2.70619256       0.00959864       0.00000000
Si      -2.71363709       0.02226843       2.67813700       0.00000000
Si       0.02718801      -2.70588305       2.68910687       0.00000000
Si      -2.70686045      -0.03515382      -2.69100326       0.00000000
Si       2.66369195      -0.01091430       2.75454683       0.00000000
Si      -0.01080027       2.74022238      -2.68785234       0.00000000
