10
Lattice="16.290000149 0.0 0.0 0.0 16.290000149 0.0 0.0 0.0 29.1751946751" Properties=species:S:1:pos:R:3:initial_magmoms:R:1 pbc="T T T"
Si       1.36011727       1.36342414      -1.34202978       0.00000000
Si      -1.35351982       1.38569257       1.33610722       0.00000000
Si       1.38730528      -1.34245891       1.34707709       0.00000000
Si      -1.35767377      -1.36383139      -1.35693830       0.00000000
Si      -2.71241534       0.03274290       2.66617517       0.00000000
Si       0.05054787      -2.79085170       2.60292334       0.00000000
Si      -0.00050499       2.71680061      -2.69359985       0.00000000
Si       2.69076593       2.71946729       0.04151630       0.00000000
Si       2.71099811       0.00228060      -2.70214818       0.00000000
Si      -2.72671796      -0.01567098      -2.69838458       0.00000000
