10
Lattice="16.290000149 0.0 0.0 0.0 16.290000149 0.0 0.0 0.0 29.1751946751" Properties=species:S:1:pos:R:3:initial_magmoms:R:1 pbc="T T T"
Si      -1.41982338       1.22018617      -1.37660239       0.00000000
Si      -1.30759831      -1.49180563       1.27075478       0.00000000
Si       1.49713246      -1.33667596      -1.25397904       0.00000000
Si       0.66707551       1.87797638       1.29532029       0.00000000
Si       0.04311963       2.60374475      -2.59463759       0.00000000
Si       0.25366788      -2.56670129       2.63536616       0.00000000
Si      -2.75496483       2.53197101       0.04288754       0.00000000
Si       0.06118524      -2.74463697      -2.57039300       0.00000000
Si      -2.71125875      -0.18622728      -2.69727592       0.00000000
Si      -0.98227072       3.53510922       1.19717494       0.00000000
