10
Lattice="16.290000149 0.0 0.0 0.0 16.290000149 0.0 0.0 0.0 29.1751946751" Properties=species:S:1:pos:R:3:initial_magmoms:R:1 pbc="T T T"
H        0.91452061      -0.88998787       0.80891145       0.00000000
Si       1.34459290       1.30557835      -1.39492441       0.00000000
Si      -1.13972986       1.43218423       1.46176478       0.00000000
Si      -1.31139388      -1.46984671      -1.27836951       0.00000000
H       -1.09863019      -1.23984820       2.21999891       0.00000000
Si      -2.56766566       2.64891692       0.07929818       0.00000000
Si      -0.48426912      -2.54455667       2.66209064       0.00000000
Si      -2.65146142      -0.12579138      -2.65450509       0.00000000
Si      -0.00070047       2.67413384      -2.69724675       0.00000000
Si       2.72978048       2.65046447      -0.09718257       0.00000000
