10
Lattice="16.290000149 0.0 0.0 0.0 16.290000149 0.0 0.0 0.0 29.1751946751" Properties=species:S:1:pos:R:3:initial_magmoms:R:1 pbc="T T T"
Si       1.45809755       1.17962407      -1.41758186       0.00000000
Si      -1.39551544      -1.32113530      -1.36573754       0.00000000
Si      -1.33033915       1.43967763       1.31494936       0.00000000
Si       1.38719125      -1.35993808       1.35814616       0.00000000
Si       0.14299362      -2.59441058      -2.56069517       0.00000000
Si       0.05567922       2.34704693      -2.88211829       0.00000000
H       -0.85535533       3.08454411      -1.90959235       0.00000000
Si      -2.67219533       0.02145393       2.67493939       0.00000000
Si       2.67977018       2.66809025      -0.01839496       0.00000000
Si      -2.61260651      -2.75586078       0.07726759       0.00000000
