10
Lattice="16.290000149 0.0 0.0 0.0 16.290000149 0.0 0.0 0.0 29.1751946751" Properties=species:S:1:pos:R:3:initial_magmoms:R:1 pbc="T T T"
Si      -1.19589778      -0.36491229      -0.89118550       0.00000000
H        1.40100517      -2.03194946       0.45594994       0.00000000
Si      -0.34005375       1.12223440      -2.52003662       0.00000000
Si       0.09005112       2.93949795      -1.03910373       0.00000000
Si      -1.96929812      -2.48078783       0.28413722       0.00000000
Si       1.99783820       1.17527464       2.19105712       0.00000000
Si      -1.45313317      -1.56996505       2.37745744       0.00000000
Si       0.60439159      -0.56409013       3.10386144       0.00000000
Si      -0.65585170      -2.74605420      -1.62806339       0.00000000
H        3.11171583       0.64532836      -0.72879636       0.00000000
