10
Lattice="16.290000149 0.0 0.0 0.0 16.290000149 0.0 0.0 0.0 29.1751946751" Properties=species:S:1:pos:R:3:initial_magmoms:R:1 pbc="T T T"
H        0.53230833       0.25112664      -1.38885597       0.00000000
Si       1.68243122      -0.92779696       1.31973993       0.00000000
Si      -0.85105477       1.87545143       1.11411316       0.00000000
Si      -1.80159257      -1.59110947      -0.11830541       0.00000000
H        1.71390350       2.05786685      -0.99148982       0.00000000
H       -1.04638816       1.12236472      -2.56047343       0.00000000
H       -0.15599304      -0.67996090      -3.02998984       0.00000000
Si      -2.16461522       0.51245082       2.60143541       0.00000000
Si       2.65039931      -2.38109303      -0.19249793       0.00000000
Si       0.41565564      -2.41078970       2.64283501       0.00000000
