10
Lattice="16.290000149 0.0 0.0 0.0 16.290000149 0.0 0.0 0.0 29.1751946751" Properties=species:S:1:pos:R:3:initial_magmoms:R:1 pbc="T T T"
Si      -0.73013410       2.19022473       0.40098388       0.00000000
Si       1.90055432       0.54964252       1.28481722       0.00000000
Si      -1.61735266      -1.48830165       0.93623200       0.00000000
Si       0.73140472       0.34630423      -2.26180697       0.00000000
H        1.42856785      -2.19349576      -1.28551743       0.00000000
H        1.72232543       1.93779489       1.89370354       0.00000000
Si       2.54387900       1.67019905      -1.65788044       0.00000000
Si       1.20935332       3.21597346      -0.50134655       0.00000000
H       -0.53504505      -2.55959722      -2.54676109       0.00000000
Si      -0.40239558      -2.90110079       2.38761566       0.00000000
