10
Lattice="16.290000149 0.0 0.0 0.0 16.290000149 0.0 0.0 0.0 29.1751946751" Properties=species:S:1:pos:R:3:initial_magmoms:R:1 pbc="T T T"
Si      -1.30877119      -1.28912545       1.47137509       0.00000000
Si      -1.34742736       1.36218610      -1.37782774       0.00000000
Si       1.43156521      -1.37119447      -1.28524318       0.00000000
Si       1.37197639       1.40612023       1.31242863       0.00000000
Si      -2.62065377      -2.64992690       0.12673413       0.00000000
Si       2.64865628       0.06353100      -2.72824831       0.00000000
Si       2.74595646      -2.63498897       0.18841341       0.00000000
Si      -2.71073747       2.70948314       0.01415580       0.00000000
Si       2.71057457       0.06947685       2.73492359       0.00000000
Si      -2.73689922      -0.01839141      -2.71739514       0.00000000
