10
Lattice="16.290000149 0.0 0.0 0.0 16.290000149 0.0 0.0 0.0 29.1751946751" Properties=species:S:1:pos:R:3:initial_magmoms:R:1 pbc="T T T"
Si       1.54452007      -1.11910672       1.32592507       0.00000000
Si      -1.22117986      -1.13899681      -1.62917205       0.00000000
Si      -1.59164704      -0.06812478       1.79672519       0.00000000
Si       1.31053051       1.58280157      -1.27110488       0.00000000
H        0.87491962      -1.88939567       2.42658847       0.00000000
Si      -1.70562818       2.23745107       2.03088530       0.00000000
H       -0.68865976      -2.83677321       1.89875084       0.00000000
Si      -2.66491370      -2.44661141      -0.40748994       0.00000000
Si       2.82318735      -2.45581526      -0.08571672       0.00000000
Si       0.14426424      -2.51559956      -2.88350119       0.00000000
