10
Lattice="16.290000149 0.0 0.0 0.0 16.290000149 0.0 0.0 0.0 29.1751946751" Properties=species:S:1:pos:R:3:initial_magmoms:R:1 pbc="T T T"
Si       1.25222860      -1.10591997       1.60405220       0.00000000
Si      -1.81247429      -1.32389483      -0.60392653       0.00000000
Si       1.21862233       1.32124933      -1.49534543       0.00000000
Si      -1.33452568       1.54577440       1.15653389       0.00000000
Si      -0.64332469      -1.12055653       2.94269766       0.00000000
H        3.09627291      -0.51540094      -0.76602391       0.00000000
Si      -0.20593818      -2.85892761      -1.68253348       0.00000000
Si       2.75467161       2.04097412       0.11247038       0.00000000
Si      -3.03451752       0.54319006      -1.55751777       0.00000000
Si      -2.54387900      -1.67019905       1.65788044       0.00000000
