10
Lattice="16.290000149 0.0 0.0 0.0 16.290000149 0.0 0.0 0.0 29.1751946751" Properties=species:S:1:pos:R:3:initial_magmoms:R:1 pbc="T T T"
Si      -1.34060185      -1.35163018       1.36960034       0.00000000
Si       1.32243850      -1.37466424      -1.37283879       0.00000000
Si      -1.36200691       1.32598972      -1.38780566       0.00000000
Si       1.34117200       1.33090930       1.40954118       0.00000000
Si       2.69930189       2.67077810       0.01167008       0.00000000
Si       2.62713719      -2.75618658       0.00172134       0.00000000
Si      -2.72484461       2.69071706      -0.06059688       0.00000000
Si      -2.73323396       0.00016290       2.68522657       0.00000000
Si       2.67703346      -0.02855637      -2.74853674       0.00000000
Si      -0.00731421       2.69360039      -2.73788779       0.00000000
