10
Lattice="16.290000149 0.0 0.0 0.0 16.290000149 0.0 0.0 0.0 29.1751946751" Properties=species:S:1:pos:R:3:initial_magmoms:R:1 pbc="T T T"
Si       1.32932917       1.33068124      -1.40300594       0.00000000
Si      -1.19940013       1.47100330       1.43267711       0.00000000
Si       1.46864125      -1.20930445       1.45843881       0.00000000
Si      -1.56838492      -1.12664899      -1.46021849       0.00000000
H        1.82746109      -3.02738250      -0.78554212       0.00000000
Si      -0.17901081       2.64388331      -2.68560584       0.00000000
Si      -2.52744239       0.08935065       2.80885937       0.00000000
Si       2.91983592       2.45887778      -0.05794194       0.00000000
H        2.00880137       3.19637496       0.91458400       0.00000000
Si      -2.60118722       2.89556382       0.21344572       0.00000000
