10
Lattice="16.290000149 0.0 0.0 0.0 16.290000149 0.0 0.0 0.0 29.1751946751" Properties=species:S:1:pos:R:3:initial_magmoms:R:1 pbc="T T T"
Si       1.81842014      -0.89073721       1.14757711       0.00000000
Si      -0.88324381       1.77828158       1.28102445       0.00000000
Si       1.12199005       1.44200710      -1.54885273       0.00000000
Si      -1.02257218      -2.14816232      -0.39462368       0.00000000
H       -1.93034873      -0.57715471      -1.88550531       0.00000000
Si       2.60755661       2.45513108      -0.07746014       0.00000000
Si      -0.04807179      -2.55086253      -2.54594419       0.00000000
Si      -1.95971960       0.61478461       2.99036993       0.00000000
Si       0.98940574       3.23915250       1.43460267       0.00000000
H        3.20052891      -0.62895691      -1.76404897       0.00000000
