10
Lattice="16.290000149 0.0 0.0 0.0 16.290000149 0.0 0.0 0.0 29.1751946751" Properties=species:S:1:pos:R:3:initial_magmoms:R:1 pbc="T T T"
Si       1.37220445       1.38427534       1.31084150       0.00000000
Si       1.37173204      -1.33835546      -1.36732467       0.00000000
Si      -1.32297607       1.36648666      -1.39156926       0.00000000
Si      -1.36640521      -1.36030461       1.37642733       0.00000000
Si      -2.67255371      -2.67213017      -0.07273376       0.00000000
Si       2.67690314       0.00275301       2.68540162       0.00000000
Si      -2.68333769       2.71937117      -0.03859878       0.00000000
Si       2.70477533      -2.70531290       0.00367607       0.00000000
Si      -2.69037497       0.03702717       2.73803367       0.00000000
Si      -2.68165982       0.02233359      -2.75629734       0.00000000
