10
Lattice="16.290000149 0.0 0.0 0.0 16.290000149 0.0 0.0 0.0 29.1751946751" Properties=species:S:1:pos:R:3:initial_magmoms:R:1 pbc="T T T"
Si       0.69471964      -2.04710730      -0.77028349       0.00000000
Si      -0.61266691      -0.51189696       2.18300477       0.00000000
Si      -1.81842014       0.89073721      -1.14757711       0.00000000
Si       1.76638988       1.48393756      -0.32903785       0.00000000
H        1.38210877       0.26178030      -2.91162608       0.00000000
Si       0.15869718       1.53308449       3.06322039       0.00000000
Si      -2.84099232      -1.25742511      -1.54220079       0.00000000
Si       2.15001938       2.13126959       1.89449127       0.00000000
Si      -0.69643009       2.33274431      -2.69642984       0.00000000
Si       0.78913648       3.34586829      -1.22503725       0.00000000
