10
Lattice="16.290000149 0.0 0.0 0.0 16.290000149 0.0 0.0 0.0 29.1751946751" Properties=species:S:1:pos:R:3:initial_magmoms:R:1 pbc="T T T"
Si      -1.32440959      -1.33645311      -1.33756306       0.00000000
Si       1.31722293      -1.43512947       1.27536446       0.00000000
Si      -1.44303337       1.33182480       1.28233733       0.00000000
Si       1.29953541       1.29030159      -1.47187690       0.00000000
Si       2.63093439      -0.05079222       2.63910058       0.00000000
Si      -0.07449417       2.68079971       2.61978661       0.00000000
Si      -2.74087398       0.00744779      -2.59153043       0.00000000
Si       2.66159543       2.68580074      -0.15398668       0.00000000
Si      -0.15025896       2.67544030      -2.69808991       0.00000000
Si      -0.08135226      -2.76954112       2.61007127       0.00000000
