10
Lattice="16.290000149 0.0 0.0 0.0 16.290000149 0.0 0.0 0.0 29.1751946751" Properties=species:S:1:pos:R:3:initial_magmoms:R:1 pbc="T T T"
Si      -1.22253193       1.06603390       1.69688767       0.00000000
Si       1.29779173      -1.41975496       1.35174512       0.00000000
Si      -1.40884066      -1.37024965      -1.31387572       0.00000000
Si       1.32344848       1.31932711      -1.44808161       0.00000000
H       -2.41831568       1.73117090       0.89410302       0.00000000
Si       2.72710892       0.01374876       2.51994909       0.00000000
Si      -2.01732104      -0.80036029       3.04402311       0.00000000
Si      -0.34184565      -2.47752983       2.78620192       0.00000000
Si       2.61488386       2.72574056      -0.12740808       0.00000000
H       -1.94851208       3.26218656      -0.26776994       0.00000000
