10
Lattice="16.290000149 0.0 0.0 0.0 16.290000149 0.0 0.0 0.0 29.1751946751" Properties=species:S:1:pos:R:3:initial_magmoms:R:1 pbc="T T T"
H        0.77038669      -0.37251972       0.51313332       0.00000000
H       -0.32338908       0.21111840      -1.17657725       0.00000000
H        1.24019029       1.15849594      -0.64873963       0.00000000
Si      -1.06091884      -0.74762956      -2.09778402       0.00000000
Si      -0.93234187       2.08383311       0.96704100       0.00000000
Si      -1.19073385       0.07778475       2.20616987       0.00000000
Si       1.96617044      -1.03765672       1.31591798       0.00000000
H        0.12328272      -0.32910687       2.84265592       0.00000000
Si      -2.16722162      -1.93468187       1.29076896       0.00000000
Si       1.90979075       1.92878489      -1.74940302       0.00000000
