10
Lattice="16.290000149 0.0 0.0 0.0 16.290000149 0.0 0.0 0.0 29.1751946751" Properties=species:S:1:pos:R:3:initial_magmoms:R:1 pbc="T T T"
Si      -1.37813401      -1.31836600       1.36347355       0.00000000
Si      -1.37238364       1.35242839      -1.34608513       0.00000000
Si       1.28816434      -1.36735003      -1.41409251       0.00000000
Si       1.40761891       1.32792823       1.35457511       0.00000000
Si       0.04046436      -2.69099399       2.61602301       0.00000000
Si       0.04338027       2.69526197       2.69826788       0.00000000
Si      -0.00891063       2.70238070      -2.69616727       0.00000000
Si       2.67776651      -0.00884547      -2.72773483       0.00000000
Si       2.60351669      -2.80780959      -0.14144134       0.00000000
Si      -2.73266382      -2.70013268       0.01088235       0.00000000
