10
Lattice="16.290000149 0.0 0.0 0.0 16.290000149 0.0 0.0 0.0 29.1751946751" Properties=species:S:1:pos:R:3:initial_magmoms:R:1 pbc="T T T"
Si      -1.39263211       1.35179308       1.31562623       0.00000000
Si       1.34060185       1.35163018      -1.36960034       0.00000000
Si      -1.39953907      -1.37028223      -1.31524695       0.00000000
Si       1.35374788      -1.30870603       1.42768815       0.00000000
Si       2.58636332      -2.74265284       0.01517110       0.00000000
Si       2.68177385       2.68253948       0.03994084       0.00000000
Si      -2.89333209      -0.01083285       2.47656558       0.00000000
Si      -0.05274702       2.63272466       2.75308807       0.00000000
Si       2.66304035      -0.02303406      -2.74243912       0.00000000
Si      -2.73320139       2.70089831      -0.06902851       0.00000000
