10
Lattice="16.290000149 0.0 0.0 0.0 16.290000149 0.0 0.0 0.0 29.1751946751" Properties=species:S:1:pos:R:3:initial_magmoms:R:1 pbc="T T T"
Si      -1.36340785      -1.36184401       1.32942610       0.00000000
Si       1.33597549      -1.44138808      -1.28910598       0.00000000
Si      -1.38515500       1.35707104      -1.33864546       0.00000000
Si       1.37955124       1.34438113       1.35725923       0.00000000
Si       2.69172704      -0.10096542      -2.60424206       0.00000000
Si       0.01953171      -2.69972543       2.68076276       0.00000000
Si      -2.71404434       0.00364896       2.68391368       0.00000000
Si      -0.03487689       2.75222323      -2.64860586       0.00000000
Si      -2.69830820      -2.71285517      -0.06491481       0.00000000
Si      -2.70902702       2.70892928       0.04568835       0.00000000
