10
Lattice="16.290000149 0.0 0.0 0.0 16.290000149 0.0 0.0 0.0 29.1751946751" Properties=species:S:1:pos:R:3:initial_magmoms:R:1 pbc="T T T"
Si      -1.36669843      -1.34412049       1.34418874       0.00000000
Si      -1.38293956       1.34586352      -1.33499856       0.00000000
Si       1.35063649      -1.36549297      -1.35448759       0.00000000
Si       1.36480879       1.36205578       1.35320388       0.00000000
Si       0.00501732       2.70528032      -2.63822533       0.00000000
Si      -0.00263898      -2.70164765       2.67326474       0.00000000
Si       2.71404434      -0.00364896      -2.68391368       0.00000000
Si      -2.70710480      -2.70655094      -0.02097696       0.00000000
Si      -2.70016526       2.71686251       0.05391576       0.00000000
Si      -2.68648166       0.01899414       2.73406584       0.00000000
