10
Lattice="16.290000149 0.0 0.0 0.0 16.290000149 0.0 0.0 0.0 29.1751946751" Properties=species:S:1:pos:R:3:initial_magmoms:R:1 pbc="T T T"
Si       1.81247429       1.32389483       0.60392653       0.00000000
Si      -0.73140472      -0.34630423       2.26180697       0.00000000
Si      -1.22204323       1.86708488      -0.95359124       0.00000000
Si       1.60653610      -1.53503278      -1.07860695       0.00000000
H        0.69716314      -2.53979999       0.97628954       0.00000000
H       -1.26644977      -2.90590145      -0.28495413       0.00000000
Si      -0.29553318      -2.85955640      -1.45590056       0.00000000
Si       0.47794860       2.86966923       1.76046042       0.00000000
Si      -1.46153881       1.84392050       2.66279084       0.00000000
Si      -1.15758370      -1.45760641      -3.07567820       0.00000000
