10
Lattice="16.290000149 0.0 0.0 0.0 16.290000149 0.0 0.0 0.0 29.1751946751" Properties=species:S:1:pos:R:3:initial_magmoms:R:1 pbc="T T T"
Si       1.36728487      -1.34304535       1.35308718       0.00000000
Si       1.37815030       1.35511624      -1.33111826       0.00000000
Si      -1.31939227       1.36818082       1.38465474       0.00000000
Si      -1.36480879      -1.36205578      -1.35320388       0.00000000
Si      -0.00434943       2.71474970      -2.65292963       0.00000000
Si      -0.02231730      -2.70154991       2.66672949       0.00000000
Si       2.72878680      -0.02132361      -2.67985833       0.00000000
Si      -2.68286528       0.01822851       2.73473687       0.00000000
Si      -2.70907589       2.71721112       0.05201937       0.00000000
Si       2.74308942       0.02709027       2.68470141       0.00000000
