10
Lattice="16.290000149 0.0 0.0 0.0 16.290000149 0.0 0.0 0.0 29.1751946751" Properties=species:S:1:pos:R:3:initial_magmoms:R:1 pbc="T T T"
Si      -1.32305752      -1.33903166       1.35515862       0.00000000
Si      -1.45510426       1.30844849      -1.27221354       0.00000000
Si       1.23623345       1.36558240       1.44032101       0.00000000
Si       1.39316968      -1.37716655      -1.30194306       0.00000000
Si       2.62896167      -0.07140901       2.59787603       0.00000000
Si      -2.59270013       0.10012241       2.70051437       0.00000000
Si      -0.07372854       2.64654494      -2.65526364       0.00000000
Si       2.64536570       2.66467571       0.05385741       0.00000000
Si       0.01265826      -2.73686028      -2.65625560       0.00000000
Si      -2.85285144      -0.10648138      -2.53418658       0.00000000
