10
Lattice="16.290000149 0.0 0.0 0.0 16.290000149 0.0 0.0 0.0 29.1751946751" Properties=species:S:1:pos:R:3:initial_magmoms:R:1 pbc="T T T"
Si      -1.44373384      -1.30761460       1.22168210       0.00000000
Si       1.36544410      -1.37660275      -1.25432914       0.00000000
Si       1.22117986       1.13899681       1.62917205       0.00000000
Si      -1.39751911       1.44699184      -1.19107732       0.00000000
Si      -0.37046718       1.07087203       3.42589723       0.00000000
Si       2.70220151       0.07179003      -2.51017540       0.00000000
Si      -0.05628195      -2.68638392      -2.56610425       0.00000000
Si      -2.50216031       0.09495441       2.75244622       0.00000000
Si      -0.20500965      -2.65652435       2.60671612       0.00000000
Si       2.53171037       2.72179838       0.35806716       0.00000000
