10
Lattice="16.290000149 0.0 0.0 0.0 16.290000149 0.0 0.0 0.0 29.1751946751" Properties=species:S:1:pos:R:3:initial_magmoms:R:1 pbc="T T T"
Si       0.61436107      -1.30470847       0.44209172       0.00000000
Si      -1.51640028       1.46903221       0.63114699       0.00000000
H        2.01315080       0.34986033      -1.41108747       0.00000000
Si       1.09863019       1.23984820      -2.21999891       0.00000000
Si      -0.04109967       2.67203243      -0.75823413       0.00000000
Si      -2.82835388      -0.23216508      -0.50703571       0.00000000
Si      -1.62189595      -1.52909182      -2.11190482       0.00000000
Si      -0.22550247       1.62502525       2.65558457       0.00000000
Si      -0.22916772      -2.96608323      -0.95434979       0.00000000
Si       2.92092735      -1.22114728       0.07979416       0.00000000
