10
Lattice="16.28999089631971 0.0 0.0 0.0 16.28999089631971 0.0 0.0 0.0 34.40785480372833" Properties=species:S:1:pos:R:3:initial_magmoms:R:1 pbc="T T T"
Si      -1.33911619      -1.37445478       1.37899878       0.00000000
Si       1.36946772       1.35109910       1.37614292       0.00000000
Si       1.33646418      -1.33739503      -1.45200884       0.00000000
Si      -1.50146885       1.35098507      -1.41908395       0.00000000
Si      -2.70952289       2.70126154       0.04199137       0.00000000
Si      -2.69336321      -2.72417902      -0.00933830       0.00000000
Si       2.72000646       2.70792415      -0.01833252       0.00000000
Si      -2.70219268      -0.01142752       2.73986460       0.00000000
Si       0.01169622       2.70310231       2.74024309       0.00000000
Si       2.72360655      -2.72290840       0.02085805       0.00000000
