10
Lattice="16.28999089631971 0.0 0.0 0.0 16.28999089631971 0.0 0.0 0.0 34.40785480372833" Properties=species:S:1:pos:R:3:initial_magmoms:R:1 pbc="T T T"
Si       0.74061996      -1.55406600       1.61710126       0.00000000
Si      -1.68367480       1.28098044       1.07713850       0.00000000
Si       2.18383903       0.57555828      -0.95206587       0.00000000
Si      -2.24289421      -0.95944842      -0.71912457       0.00000000
Si       0.99973033       1.55659095      -2.63247763       0.00000000
Si      -1.35419326      -1.60899588      -2.72448428       0.00000000
Si      -1.37458834      -2.35708155       2.42620242       0.00000000
Si      -1.37936131       0.90482805       3.36870291       0.00000000
Si       1.10705537      -3.58754670       0.26783089       0.00000000
Si      -0.84827473       3.44541549       1.33048367       0.00000000
