10
Lattice="16.28999089631971 0.0 0.0 0.0 16.28999089631971 0.0 0.0 0.0 34.40785480372833" Properties=species:S:1:pos:R:3:initial_magmoms:R:1 pbc="T T T"
Si       1.46235330      -1.50185655       1.02449445       0.00000000
Si       1.76858901       0.10544517      -1.58506753       0.00000000
Si      -0.36703162       2.40219575       0.58923484       0.00000000
Si      -2.18242736      -1.00258434      -0.98165665       0.00000000
Si       3.38633262      -0.77649543      -0.13646163       0.00000000
Si      -3.57533639       0.63022493       0.15397524       0.00000000
Si      -2.50540919       0.98386454       2.48097976       0.00000000
Si       1.94152365       2.14958672      -2.68949147       0.00000000
Si       1.85388345      -1.35022923      -3.41030203       0.00000000
Si       1.21793814      -2.87072154       2.83520026       0.00000000
