10
Lattice="16.28999089631971 0.0 0.0 0.0 16.28999089631971 0.0 0.0 0.0 34.40785480372833" Properties=species:S:1:pos:R:3:initial_magmoms:R:1 pbc="T T T"
Si       1.35764118       1.35741312      -1.35573905       0.00000000
Si      -1.35710361       1.35723393       1.35804438       0.00000000
Si       1.35795069      -1.35889551       1.35759708       0.00000000
Si      -1.35993807      -1.35798327      -1.35656484       0.00000000
Si      -2.70947335      -0.00247608      -2.71639843       0.00000000
Si      -0.00047241      -2.71350675       2.71347376       0.00000000
Si      -2.71426749       2.71445157       0.00037849       0.00000000
Si       0.00127062       2.71441899       2.71574468       0.00000000
Si      -2.71473502      -2.71545992       0.00079138       0.00000000
Si       2.71521720      -2.71502986       0.00072257       0.00000000
