10
Lattice="16.28999089631971 0.0 0.0 0.0 16.28999089631971 0.0 0.0 0.0 34.40785480372833" Properties=species:S:1:pos:R:3:initial_magmoms:R:1 pbc="T T T"
Si      -1.35764118      -1.35741312       1.35573905       0.00000000
Si       1.35809730       1.35760860       1.35639280       0.00000000
Si       1.35430173      -1.35296595      -1.36496036       0.00000000
Si      -1.35819504       1.35404109      -1.36533885       0.00000000
Si      -2.69032608      -0.02937087      -2.70548425       0.00000000
Si       0.00060273       2.71480995       2.71354258       0.00000000
Si      -2.71474479      -0.00017919       2.71378343       0.00000000
Si       2.71520091       0.00040725       2.71385225       0.00000000
Si       0.00030951      -2.71630863       2.71333613       0.00000000
Si      -2.71521720       2.71552671       0.00006882       0.00000000
