10
Lattice="16.28999089631971 0.0 0.0 0.0 16.28999089631971 0.0 0.0 0.0 34.40785480372833" Properties=species:S:1:pos:R:3:initial_magmoms:R:1 pbc="T T T"
Si       1.35669636       1.35847197      -1.35780353       0.00000000
Si      -1.35516510       1.36052451       1.35831964       0.00000000
Si      -1.35819504      -1.35824391      -1.35831964       0.00000000
Si       1.35664749      -1.36273995       1.35945510       0.00000000
Si       2.71419093      -2.71365825      -0.00044730       0.00000000
Si       2.71423980       0.00081450      -2.71488448       0.00000000
Si       2.71332756       2.71596654      -0.00010322       0.00000000
Si      -2.71661814      -2.71285515      -0.00244296       0.00000000
Si      -0.00092853      -2.71437826      -2.71519416       0.00000000
Si      -2.71487511       2.71507059      -0.00017204       0.00000000
