10
Lattice="16.28999089631971 0.0 0.0 0.0 16.28999089631971 0.0 0.0 0.0 34.40785480372833" Properties=species:S:1:pos:R:3:initial_magmoms:R:1 pbc="T T T"
Si      -1.35971001       1.35454608      -1.35849168       0.00000000
Si       1.35516510      -1.36052451      -1.35831964       0.00000000
Si       1.35814617       1.35876519       1.35880135       0.00000000
Si      -1.36533006      -1.37943720       1.36561411       0.00000000
Si      -0.10720449       2.55906126       2.77172629       0.00000000
Si       0.08666280      -2.66963778       2.74980848       0.00000000
Si       2.71318095       2.71305063      -0.00619342       0.00000000
Si       2.71186146      -0.00205254      -2.71612317       0.00000000
Si      -0.00273672       2.71235016      -2.71643284       0.00000000
Si      -2.71876842       2.71352304       0.00371605       0.00000000
