10
Lattice="16.28999089631971 0.0 0.0 0.0 16.28999089631971 0.0 0.0 0.0 34.40785480372833" Properties=species:S:1:pos:R:3:initial_magmoms:R:1 pbc="T T T"
Si      -1.77921009      -0.91790892       1.23661899       0.00000000
Si      -1.34941473       1.33695288      -1.42854611       0.00000000
Si       1.36316349      -1.37801997      -1.40387567       0.00000000
Si       1.24452342       1.42247538       1.60361338       0.00000000
Si      -0.86170842       2.98548459       1.55654341       0.00000000
Si      -0.77861313      -0.58832964       3.45224523       0.00000000
Si       2.60727966       2.68951158      -0.02102321       0.00000000
Si      -2.62089810      -2.69145009      -0.03753899       0.00000000
Si      -2.81476539       2.53724895      -0.01562117       0.00000000
Si       0.00562005       2.69123832      -2.79354088       0.00000000
