10
Lattice="16.28999089631971 0.0 0.0 0.0 16.28999089631971 0.0 0.0 0.0 34.40785480372833" Properties=species:S:1:pos:R:3:initial_magmoms:R:1 pbc="T T T"
Si      -0.84168801      -1.77354117      -1.27415798       0.00000000
Si       1.77921009       0.91790892      -1.23661899       0.00000000
Si       1.00059696       0.32957928       2.21562623       0.00000000
Si      -1.99739835       1.48915035      -0.11795019       0.00000000
Si      -0.17928774       2.41453638       1.98997939       0.00000000
Si      -0.90238455      -0.99098586       3.20196235       0.00000000
Si       0.42979536       2.25486180      -2.66516511       0.00000000
Si      -2.29368087      -0.48334059      -2.65835235       0.00000000
Si      -1.03555530       3.45515787      -1.25224017       0.00000000
Si       3.02373351       2.34038430       0.36699438       0.00000000
