10
Lattice="16.28999089631971 0.0 0.0 0.0 16.28999089631971 0.0 0.0 0.0 34.40785480372833" Properties=species:S:1:pos:R:3:initial_magmoms:R:1 pbc="T T T"
Si      -2.06786889      -0.49210461       0.90107341       0.00000000
Si      -0.49925592       0.62864739      -2.20654255       0.00000000
Si       1.36860435      -1.91824524      -0.17506726       0.00000000
Si       0.52220853       2.04343389       1.18091264       0.00000000
Si      -3.15538929       1.55882268       1.00811630       0.00000000
Si      -1.68221943      -1.33724610       3.05005159       0.00000000
Si       2.65012236       1.69450209       2.02541950       0.00000000
Si      -1.23300639       2.84657976      -2.15696081       0.00000000
Si       1.46725659       0.66678228      -3.48042527       0.00000000
Si       0.10300167       3.81647007      -0.39644752       0.00000000
