10
Lattice="16.28999089631971 0.0 0.0 0.0 16.28999089631971 0.0 0.0 0.0 34.40785480372833" Properties=species:S:1:pos:R:3:initial_magmoms:R:1 pbc="T T T"
Si       0.85372632       1.53207450      -1.62673547       0.00000000
Si       0.71542422      -2.22700590      -0.67023098       0.00000000
Si      -2.28778389       0.81311535      -0.53948106       0.00000000
Si       0.40306347      -0.41537871       2.50847165       0.00000000
Si      -1.42397406       1.18706859       2.94459390       0.00000000
Si      -2.27546865       2.41976547       1.17117522       0.00000000
Si      -1.30862457      -2.59268382      -1.99372985       0.00000000
Si      -0.88472619       1.36765953      -3.21916629       0.00000000
Si       1.51927056       3.56658147      -0.75570014       0.00000000
Si       1.19322621      -3.55929984       1.38140733       0.00000000
