10
Lattice="16.28999089631971 0.0 0.0 0.0 16.28999089631971 0.0 0.0 0.0 34.40785480372833" Properties=species:S:1:pos:R:3:initial_magmoms:R:1 pbc="T T T"
Si      -1.33234281      -1.33999911      -1.36748246       0.00000000
Si       1.35853713      -1.35241209       1.35670247       0.00000000
Si      -1.35622395       1.36223496       1.35673688       0.00000000
Si       1.35454608       1.36671471      -1.37994155       0.00000000
Si      -2.62831005       0.10109574      -2.66904287       0.00000000
Si       2.71397916      -2.71031391      -0.00633105       0.00000000
Si       0.00104256      -2.71107954       2.71364580       0.00000000
Si      -2.71394658       0.00377928       2.71337054       0.00000000
Si      -2.71524978      -2.71464705      -0.00808585       0.00000000
Si       2.71591767       0.00316026       2.71405870       0.00000000
