10
Lattice="16.28999089631971 0.0 0.0 0.0 16.28999089631971 0.0 0.0 0.0 34.40785480372833" Properties=species:S:1:pos:R:3:initial_magmoms:R:1 pbc="T T T"
Si      -1.35832536      -1.35694071      -1.35604872       0.00000000
Si       1.35749457      -1.35765747       1.35742504       0.00000000
Si       1.35772263       1.35845568      -1.35663366       0.00000000
Si      -1.35786924       1.35782037       1.35756267       0.00000000
Si       2.71394658      -0.00377928      -2.71337054       0.00000000
Si      -2.71476760       2.71459818       0.00051612       0.00000000
Si       2.71472850       2.71480995       0.00072257       0.00000000
Si       2.71498914      -2.71485882       0.00027526       0.00000000
Si      -0.00143352       2.71559187       2.71457481       0.00000000
Si      -2.71349698      -0.00047241      -2.71681133       0.00000000
