10
Lattice="16.28999089631971 0.0 0.0 0.0 16.28999089631971 0.0 0.0 0.0 34.40785480372833" Properties=species:S:1:pos:R:3:initial_magmoms:R:1 pbc="T T T"
Si      -1.26677556       0.50759640       1.88933636       0.00000000
Si       2.16801981       0.17578539       0.85974955       0.00000000
Si      -0.31869756       1.76785596      -1.52485375       0.00000000
Si      -0.58200912      -2.21027607      -0.58011676       0.00000000
Si       3.28797360      -1.53995886      -0.31768790       0.00000000
Si       1.88869518       2.54962935      -1.95099527       0.00000000
Si      -2.89132839      -2.24767791      -0.85479481       0.00000000
Si      -0.20670381       2.42295831       2.87168117       0.00000000
Si       2.24402895      -1.23800742       2.78789799       0.00000000
Si      -3.51184707       0.89989218       1.27673857       0.00000000
