10
Lattice="16.28999089631971 0.0 0.0 0.0 16.28999089631971 0.0 0.0 0.0 34.40785480372833" Properties=species:S:1:pos:R:3:initial_magmoms:R:1 pbc="T T T"
Si      -0.66554424      -2.03450697      -0.87103533       0.00000000
Si       1.96863021       0.17695827       1.24501451       0.00000000
Si      -2.00389806       0.38423223       1.20441322       0.00000000
Si      -0.02295261       1.77269409      -1.62167751       0.00000000
Si       1.19897658      -2.38220073      -2.21610794       0.00000000
Si       3.48785190       0.02709027      -0.72311588       0.00000000
Si       2.13654753       2.59032177       1.28795554       0.00000000
Si      -3.61207944       0.85568112      -0.66431282       0.00000000
Si      -2.26802412       2.16498987      -2.23427530       0.00000000
Si      -1.26860004       1.24800948       3.43197524       0.00000000
