10
Lattice="16.28999089631971 0.0 0.0 0.0 16.28999089631971 0.0 0.0 0.0 34.40785480372833" Properties=species:S:1:pos:R:3:initial_magmoms:R:1 pbc="T T T"
Si       1.96195131       0.74960978      -1.32260427       0.00000000
Si      -1.74915504       1.74192458      -0.27808444       0.00000000
Si      -0.94032396      -1.86536790      -1.39620271       0.00000000
Si       0.57513474      -0.65827890       2.43587103       0.00000000
Si       0.43401447       2.05117394      -2.93203258       0.00000000
Si      -2.30174442      -0.67339602      -2.95309020       0.00000000
Si      -0.86234373       3.45304736      -1.56012182       0.00000000
Si       3.75002316       1.09622156       0.68540485       0.00000000
Si      -2.42103609      -3.14313921       0.04442057       0.00000000
Si      -3.54929778       0.77814139      -1.62425810       0.00000000
