10
Lattice="16.28999089631971 0.0 0.0 0.0 16.28999089631971 0.0 0.0 0.0 34.40785480372833" Properties=species:S:1:pos:R:3:initial_magmoms:R:1 pbc="T T T"
Si       1.43941698      -1.45337751      -1.19852948       0.00000000
Si       0.32902542       2.12068107      -1.06815804       0.00000000
Si       1.35016407       0.56568654       1.90007162       0.00000000
Si      -2.26882233      -0.77154327       0.45132808       0.00000000
Si       2.08683045       1.32900336      -2.79219898       0.00000000
Si       3.59479575       0.57189303       1.11574413       0.00000000
Si       0.13734099       3.75302445       0.67085032       0.00000000
Si      -1.54367298       2.47622661      -2.46731983       0.00000000
Si      -3.54484572       1.18003131       0.82444707       0.00000000
Si       3.55965822      -1.45904643      -0.13983360       0.00000000
