10
Lattice="16.28999089631971 0.0 0.0 0.0 16.28999089631971 0.0 0.0 0.0 34.40785480372833" Properties=species:S:1:pos:R:3:initial_magmoms:R:1 pbc="T T T"
Si       2.31259356       0.02951748       0.12094368       0.00000000
Si      -0.42270921       1.13469624       2.07885493       0.00000000
Si      -0.16791732      -2.41336350      -0.04294103       0.00000000
Si      -1.09942839       1.09773423      -1.92728825       0.00000000
Si       1.35130437      -2.56323150      -2.01107142       0.00000000
Si      -2.13654753      -2.59032177      -1.28795554       0.00000000
Si      -1.38833154      -0.57015000       3.36273112       0.00000000
Si      -2.15950014      -0.81762768      -2.90963305       0.00000000
Si       2.80176597      -1.57809375       1.87498828       0.00000000
Si      -2.86286976       2.44107279      -0.72325351       0.00000000
