10
Lattice="16.28999089631971 0.0 0.0 0.0 16.28999089631971 0.0 0.0 0.0 34.40785480372833" Properties=species:S:1:pos:R:3:initial_magmoms:R:1 pbc="T T T"
Si      -1.35650088       1.35567009       1.35835405       0.00000000
Si       1.34179101       1.35883035      -1.37311503       0.00000000
Si       1.35814617      -1.36029645       1.35907662       0.00000000
Si      -1.37189493      -1.34917038      -1.37572315       0.00000000
Si       2.60732853      -0.13330107      -2.66429459       0.00000000
Si      -0.00013032       2.71347417       2.71605435       0.00000000
Si      -2.71655298       2.71437012      -0.00378487       0.00000000
Si       2.71632492       2.71507059      -0.00144513       0.00000000
Si      -2.71484253      -0.00125433       2.71657047       0.00000000
Si       2.71480995      -0.00210141       2.71667369       0.00000000
