10
Lattice="16.28999089631971 0.0 0.0 0.0 16.28999089631971 0.0 0.0 0.0 34.40785480372833" Properties=species:S:1:pos:R:3:initial_magmoms:R:1 pbc="T T T"
Si      -1.35790182      -1.35686807       1.35673688       0.00000000
Si       1.35702216       1.35870981       1.35677129       0.00000000
Si       1.35736425      -1.35725903      -1.35790675       0.00000000
Si      -1.35809730       1.35798980      -1.35797556       0.00000000
Si      -0.00052128       2.70962811       2.71667369       0.00000000
Si      -0.00097740      -2.71219607       2.71650165       0.00000000
Si      -0.00017919      -2.71330379      -2.71584791       0.00000000
Si       2.71469592      -2.71462328      -0.00041289       0.00000000
Si       0.00097740       2.71360287      -2.71584791       0.00000000
Si      -2.71368594      -0.00135800      -2.71577909       0.00000000
