10
Lattice="16.28999089631971 0.0 0.0 0.0 16.28999089631971 0.0 0.0 0.0 34.40785480372833" Properties=species:S:1:pos:R:3:initial_magmoms:R:1 pbc="T T T"
Si      -1.32879159      -1.34824674       1.37676226       0.00000000
Si       1.35754344      -1.35091830      -1.35990241       0.00000000
Si      -1.35664749       1.36273995      -1.35945510       0.00000000
Si       1.35891180       1.36705680       1.38233634       0.00000000
Si      -2.62514979       0.05362668       2.74867302       0.00000000
Si       2.71539639      -2.70774446       0.00024086       0.00000000
Si       0.00052128      -2.70962811      -2.71667369       0.00000000
Si      -2.71627605      -2.71120396       0.00037849       0.00000000
Si      -2.71484253       0.00449604      -2.71777475       0.00000000
Si       2.71578735       0.00469152      -2.71701777       0.00000000
