10
Lattice="16.28999089631971 0.0 0.0 0.0 16.28999089631971 0.0 0.0 0.0 34.40785480372833" Properties=species:S:1:pos:R:3:initial_magmoms:R:1 pbc="T T T"
Si      -1.35690813      -1.35871632      -1.35852609       0.00000000
Si       1.35795069       1.35782037      -1.35873254       0.00000000
Si       1.35707103      -1.36052451       1.35938629       0.00000000
Si      -1.35809730       1.35998694       1.35948951       0.00000000
Si       2.71653669      -2.71258962      -0.00151395       0.00000000
Si       2.71586880       2.71340901      -0.00337197       0.00000000
Si      -2.71515204      -2.71432614      -0.00141072       0.00000000
Si       2.71454931      -0.00070047      -2.71574468       0.00000000
Si       0.00000000      -2.71525955      -2.71560705       0.00000000
Si      -2.71510317       0.00014661      -2.71584791       0.00000000
