10
Lattice="16.28999089631971 0.0 0.0 0.0 16.28999089631971 0.0 0.0 0.0 34.40785480372833" Properties=species:S:1:pos:R:3:initial_magmoms:R:1 pbc="T T T"
Si      -0.17293464      -2.04414155       1.10442394       0.00000000
Si      -1.55409858      -0.54342788      -1.69703076       0.00000000
Si      -0.65676393       2.17324890       0.75029810       0.00000000
Si       2.23770843       0.29351322      -0.81192260       0.00000000
Si      -0.11214036       0.09484038      -3.44656793       0.00000000
Si       1.36728486       2.53892682       2.07379698       0.00000000
Si      -0.08764020      -3.49981595      -0.72081055       0.00000000
Si       1.83562236       1.28805030      -2.87274781       0.00000000
Si       3.09223296       2.11387185       0.44651098       0.00000000
Si      -2.90914151       1.88641458       1.62160870       0.00000000
