10
Lattice="16.28999089631971 0.0 0.0 0.0 16.28999089631971 0.0 0.0 0.0 34.40785480372833" Properties=species:S:1:pos:R:3:initial_magmoms:R:1 pbc="T T T"
Si       0.93799449      -0.57467210      -2.09822657       0.00000000
Si      -1.54864143       1.87933006      -0.06957272       0.00000000
Si      -1.18439703      -2.14567549       0.03671320       0.00000000
Si       1.74773781       1.00022392       1.44908761       0.00000000
Si      -1.05287157       0.26236674      -3.13565838       0.00000000
Si      -0.28369035      -3.08640670       1.99813406       0.00000000
Si      -0.20334807       3.69543700       0.65970217       0.00000000
Si      -2.19367656       2.12871367      -2.37266377       0.00000000
Si      -3.47175738      -1.68468478       0.64693685       0.00000000
Si       2.60110575      -0.60826046       2.99241840       0.00000000
