10
Lattice="16.28999089631971 0.0 0.0 0.0 16.28999089631971 0.0 0.0 0.0 34.40785480372833" Properties=species:S:1:pos:R:3:initial_magmoms:R:1 pbc="T T T"
Si      -1.35843939      -1.35379674       1.39024327       0.00000000
Si       1.35829278       1.35754344       1.39161958       0.00000000
Si       1.29437082      -1.37093382      -1.52280304       0.00000000
Si      -1.29272553       1.52622639      -1.50615651       0.00000000
Si       2.70295083      -2.70599706       0.01968130       0.00000000
Si      -2.68802919       2.72785824       0.03046817       0.00000000
Si      -2.72201013      -2.71140534      -0.00419776       0.00000000
Si       2.71785618       2.72424186       0.00345111       0.00000000
Si      -2.71274112      -0.00083079       2.75520363       0.00000000
Si       0.00285075       2.71544526       2.75465311       0.00000000
