10
Lattice="16.28999089631971 0.0 0.0 0.0 16.28999089631971 0.0 0.0 0.0 34.40785480372833" Properties=species:S:1:pos:R:3:initial_magmoms:R:1 pbc="T T T"
Si       1.35650088      -1.35567009      -1.35835405       0.00000000
Si       1.35637056       1.35780408       1.35770030       0.00000000
Si      -1.35834165      -1.35692442       1.35821642       0.00000000
Si      -1.36005210       1.35870003      -1.36213892       0.00000000
Si       2.71349046       2.71420722       0.00072257       0.00000000
Si       2.69829189       0.00316026      -2.73146908       0.00000000
Si       2.71471221       0.00074934       2.71533179       0.00000000
Si      -0.00125433       2.71500543       2.71540060       0.00000000
Si       2.71464705      -2.71596654       0.00072257       0.00000000
Si      -2.71443528      -2.71650411       0.00003441       0.00000000
