10
Lattice="16.28999089631971 0.0 0.0 0.0 16.28999089631971 0.0 0.0 0.0 34.40785480372833" Properties=species:S:1:pos:R:3:initial_magmoms:R:1 pbc="T T T"
Si      -1.23986448       0.91750167      -1.76102940       0.00000000
Si      -0.63829107      -2.09447046       0.89522407       0.00000000
Si      -0.01576872       1.60463016       1.78198380       0.00000000
Si       2.37258963      -0.81735075      -1.27887186       0.00000000
Si       1.07722512       1.68217056      -2.39007415       0.00000000
Si      -3.00708513      -2.01422592       0.92016978       0.00000000
Si      -2.16397989       1.46253249       2.84350112       0.00000000
Si      -0.01469358       3.79459260       0.78628874       0.00000000
Si       1.74097746       0.94679109       3.33931858       0.00000000
Si      -3.66226893       0.21320352       1.45999491       0.00000000
