10
Lattice="16.28999089631971 0.0 0.0 0.0 16.28999089631971 0.0 0.0 0.0 34.40785480372833" Properties=species:S:1:pos:R:3:initial_magmoms:R:1 pbc="T T T"
Si      -1.36860435       1.91824524       0.17506726       0.00000000
Si       2.27743974       0.67737078       0.11918888       0.00000000
Si      -0.44668809      -1.67013225       1.65453703       0.00000000
Si      -0.21027132      -1.04282064      -2.17261639       0.00000000
Si       0.85535532      -3.09291714      -1.63557829       0.00000000
Si       2.73525390       0.14753853       2.35318891       0.00000000
Si      -0.29268243      -3.69822259       0.40553120       0.00000000
Si      -1.86786027       2.54689263      -2.03147529       0.00000000
Si       2.31260985       3.01151601       0.17131680       0.00000000
Si       1.56124989      -1.70580735       3.09763768       0.00000000
