10
Lattice="16.28999089631971 0.0 0.0 0.0 16.28999089631971 0.0 0.0 0.0 34.40785480372833" Properties=species:S:1:pos:R:3:initial_magmoms:R:1 pbc="T T T"
Si       0.83439009      -1.82063556       1.42950953       0.00000000
Si      -1.64595789       1.11775464       1.47599457       0.00000000
Si       2.24859015       1.07693190      -0.25193445       0.00000000
Si      -0.71596179       0.53998092      -2.35170937       0.00000000
Si      -1.93924305       3.03036354      -0.21821474       0.00000000
Si      -0.42002136       2.88049554      -2.18634513       0.00000000
Si       1.47093813       3.30854787      -0.67477282       0.00000000
Si       1.31898501      -3.44237022      -0.33010914       0.00000000
Si       0.71661339      -0.75082239      -3.66688154       0.00000000
Si      -0.33106167       2.32898130       3.09993410       0.00000000
