10
Lattice="16.28999089631971 0.0 0.0 0.0 16.28999089631971 0.0 0.0 0.0 34.40785480372833" Properties=species:S:1:pos:R:3:initial_magmoms:R:1 pbc="T T T"
Si      -1.35685926       1.35716877      -1.35714978       0.00000000
Si      -1.35799956      -1.35677781       1.35759708       0.00000000
Si       1.35762489      -1.35720135      -1.35770030       0.00000000
Si       1.35790182       1.35746199       1.35728741       0.00000000
Si      -2.71331127       0.00083079       2.70982653       0.00000000
Si      -2.71423980       0.00159642      -2.71450600       0.00000000
Si      -2.71463076      -2.71427238      -0.00010322       0.00000000
Si       2.71474479      -0.00079821      -2.71467804       0.00000000
Si       0.00008145       2.71463076      -2.71509093       0.00000000
Si      -2.71474479       2.71507059      -0.00006882       0.00000000
