10
Lattice="16.28999089631971 0.0 0.0 0.0 16.28999089631971 0.0 0.0 0.0 34.40785480372833" Properties=species:S:1:pos:R:3:initial_magmoms:R:1 pbc="T T T"
Si       1.60945200       1.53147177      -0.89752939       0.00000000
Si       0.77765202      -2.23161597       0.42283836       0.00000000
Si      -0.92967030       2.16469665       0.62044278       0.00000000
Si      -1.89095949      -0.42805233      -1.51157231       0.00000000
Si      -0.44049789       0.55708542       2.37448739       0.00000000
Si       2.01311820      -2.05153002      -1.72311192       0.00000000
Si      -3.41018118      -0.27818433       0.45655808       0.00000000
Si       0.33839217       3.50482608      -0.92760188       0.00000000
Si       3.13540146       0.06577902      -1.91579602       0.00000000
Si      -1.47093813      -3.30854787       0.67477282       0.00000000
