10
Lattice="16.28999089631971 0.0 0.0 0.0 16.28999089631971 0.0 0.0 0.0 34.40785480372833" Properties=species:S:1:pos:R:3:initial_magmoms:R:1 pbc="T T T"
Si      -1.35754344      -1.35604476      -1.35794116       0.00000000
Si       1.35733167      -1.35736425       1.35749385       0.00000000
Si      -1.35736425       1.35725903       1.35790675       0.00000000
Si       1.35850455       1.35901520      -1.35670247       0.00000000
Si       2.71480995       2.71503542       0.00048171       0.00000000
Si      -2.71526607       0.00039096       2.71464363       0.00000000
Si      -0.00146610       2.71523416      -2.71471245       0.00000000
Si       0.00065160      -2.71507059       2.71488448       0.00000000
Si       2.71494027      -2.71513575       0.00010322       0.00000000
Si      -2.71520091      -2.71502172       0.00030967       0.00000000
