10
Lattice="16.28999089631971 0.0 0.0 0.0 16.28999089631971 0.0 0.0 0.0 34.40785480372833" Properties=species:S:1:pos:R:3:initial_magmoms:R:1 pbc="T T T"
Si      -1.35668007      -1.35770634       1.35739063       0.00000000
Si      -1.35733167       1.35736425      -1.35749385       0.00000000
Si       1.35760860      -1.35777150      -1.35739063       0.00000000
Si       1.35879777       1.35791811       1.35711537       0.00000000
Si       2.71300176       0.00009774      -2.71491889       0.00000000
Si       2.71179630      -0.00014661       2.71626080       0.00000000
Si      -2.71469592       2.71462328       0.00041289       0.00000000
Si       2.71498914      -2.71518462       0.00013763       0.00000000
Si       2.71495656       2.71531056      -0.00010322       0.00000000
Si      -2.71487511       0.00131949      -2.71543501       0.00000000
