10
Lattice="16.28999089631971 0.0 0.0 0.0 16.28999089631971 0.0 0.0 0.0 34.40785480372833" Properties=species:S:1:pos:R:3:initial_magmoms:R:1 pbc="T T T"
Si      -0.96948306      -2.12283135       0.25771498       0.00000000
Si       2.00215503       0.58101543      -1.09871223       0.00000000
Si      -1.64587644       1.75104468      -0.32735651       0.00000000
Si       1.12335840      -0.87721650       2.59793212       0.00000000
Si       0.78131727       1.60432065       2.51139632       0.00000000
Si       1.06911270      -2.78171298       1.15799700       0.00000000
Si      -1.47722607       2.29926834       2.15052653       0.00000000
Si      -2.47321296      -1.58537538       1.97122710       0.00000000
Si       1.05057468       1.48634847      -3.18458637       0.00000000
Si      -0.77115231       2.95717487      -2.43160446       0.00000000
