10
Lattice="16.28999089631971 0.0 0.0 0.0 16.28999089631971 0.0 0.0 0.0 34.40785480372833" Properties=species:S:1:pos:R:3:initial_magmoms:R:1 pbc="T T T"
Si       1.34706897       1.35498917      -1.34271911       0.00000000
Si       1.35439918      -1.35769989       1.35515412       0.00000000
Si      -1.35839052       1.35593399       1.35563583       0.00000000
Si      -1.34516304      -1.37876768      -1.36805707       0.00000000
Si      -0.10920816       2.58292937      -2.66773538       0.00000000
Si       2.55512301       0.00471270      -2.80379443       0.00000000
Si       2.71349113      -0.00064671       2.71288883       0.00000000
Si      -0.00172674       2.71412903       2.71323291       0.00000000
Si      -0.00123804      -2.71567725       2.71288883       0.00000000
Si      -2.71627605      -0.00043006       2.71337054       0.00000000
