10
Lattice="16.28999089631971 0.0 0.0 0.0 16.28999089631971 0.0 0.0 0.0 34.40785480372833" Properties=species:S:1:pos:R:3:initial_magmoms:R:1 pbc="T T T"
Si      -0.14711499      -0.80413956       2.21954873       0.00000000
Si      -0.90574029      -1.69238439      -1.47558168       0.00000000
Si       1.73118717       1.18211643      -1.26686351       0.00000000
Si      -1.44247950       1.69538175       1.10834644       0.00000000
Si       2.71146303      -2.30495355       0.17692529       0.00000000
Si       2.02400874      -0.46564965       3.05614178       0.00000000
Si      -2.30006655      -0.36479826      -2.92029949       0.00000000
Si       0.43194564       2.34004221      -2.93402823       0.00000000
Si      -1.62735471      -3.60113256      -0.20507093       0.00000000
Si      -2.68851789       2.88259695      -0.48989931       0.00000000
