10
Lattice="16.28999089631971 0.0 0.0 0.0 16.28999089631971 0.0 0.0 0.0 34.40785480372833" Properties=species:S:1:pos:R:3:initial_magmoms:R:1 pbc="T T T"
Si       1.40185224      -1.34464176       1.27064838       0.00000000
Si       1.36317978       1.32843321      -1.36303352       0.00000000
Si      -1.34646624      -1.38751704      -1.36110668       0.00000000
Si      -1.42498404       1.28562309       1.50551653       0.00000000
Si      -0.39047130      -2.21446260       2.44698478       0.00000000
Si      -2.37446298      -0.74140677       2.59504186       0.00000000
Si      -2.71388142       2.67778278       0.02628762       0.00000000
Si       2.71744893       2.69107542       0.00254618       0.00000000
Si       0.01018125       2.68649793      -2.72217895       0.00000000
Si      -2.70529659      -0.02912652      -2.72190369       0.00000000
