10
Lattice="16.28999089631971 0.0 0.0 0.0 16.28999089631971 0.0 0.0 0.0 34.40785480372833" Properties=species:S:1:pos:R:3:initial_magmoms:R:1 pbc="T T T"
Si      -1.35536058       1.35708732      -1.35773471       0.00000000
Si       1.35851337      -1.35876519      -1.35653043       0.00000000
Si       1.37468119       1.35692442       1.35542938       0.00000000
Si      -1.34959392      -1.37124333       1.36778181       0.00000000
Si      -2.67773391       0.04113225       2.63557434       0.00000000
Si      -2.71321353      -0.00083079      -2.71423074       0.00000000
Si       0.00179037       2.71406061      -2.71433396       0.00000000
Si       2.71833578       2.71122615      -0.00141072       0.00000000
Si      -2.71147050      -2.71818198       0.00309671       0.00000000
Si       0.00071691      -2.71573848      -2.71412751       0.00000000
