10
Lattice="16.28999089631971 0.0 0.0 0.0 16.28999089631971 0.0 0.0 0.0 34.40785480372833" Properties=species:S:1:pos:R:3:initial_magmoms:R:1 pbc="T T T"
Si      -2.10005793      -0.90008766      -0.41953521       0.00000000
Si      -0.07042167       2.34365859       0.26156866       0.00000000
Si       1.08923085      -0.59298858      -2.01688635       0.00000000
Si       0.48133692      -0.89723691       2.14908140       0.00000000
Si      -3.13114977      -0.29885634       1.60963476       0.00000000
Si       2.35996488       0.29957310       2.67235635       0.00000000
Si      -0.66751533       0.06485049      -3.57422114       0.00000000
Si       1.40799357      -2.96921088      -1.62504948       0.00000000
Si      -2.81572650      -0.07724718      -2.51270382       0.00000000
Si      -0.49681242       2.77418700       2.55282340       0.00000000
