10
Lattice="16.28999089631971 0.0 0.0 0.0 16.28999089631971 0.0 0.0 0.0 34.40785480372833" Properties=species:S:1:pos:R:3:initial_magmoms:R:1 pbc="T T T"
Si       1.35539316       1.35786924      -1.35752826       0.00000000
Si       1.35738054      -1.35741312       1.35752826       0.00000000
Si      -1.35760860       1.35777150       1.35739063       0.00000000
Si      -1.35806472      -1.35785295      -1.35776912       0.00000000
Si      -2.71428867       0.00006516       2.71478126       0.00000000
Si       2.71523349       0.00050499       2.71402429       0.00000000
Si      -0.00024435      -2.71502172       2.71460922       0.00000000
Si       2.71490769       2.71492398      -0.00010322       0.00000000
Si       0.00115659       2.71529865      -2.71464363       0.00000000
Si       2.71495656      -2.71500543      -0.00075697       0.00000000
