10
Lattice="16.28999089631971 0.0 0.0 0.0 16.28999089631971 0.0 0.0 0.0 34.40785480372833" Properties=species:S:1:pos:R:3:initial_magmoms:R:1 pbc="T T T"
Si       0.89619272      -1.72919979       1.30471218       0.00000000
Si       1.51309502       0.28808865      -1.77702906       0.00000000
Si       1.28550743       1.60976151       1.50293594       0.00000000
Si      -0.60116453      -1.77262893      -1.76233690       0.00000000
Si      -1.24945182      -2.85764067       1.47351721       0.00000000
Si      -0.68745429       1.83930390       2.87921649       0.00000000
Si      -2.71146303       2.30495355      -0.17692529       0.00000000
Si      -2.70752085      -0.91455318       2.24322135       0.00000000
Si       0.41962063       1.95453936      -3.08414979       0.00000000
Si       3.43578743       1.18117161      -0.57113630       0.00000000
