10
Lattice="16.28999089631971 0.0 0.0 0.0 16.28999089631971 0.0 0.0 0.0 34.40785480372833" Properties=species:S:1:pos:R:3:initial_magmoms:R:1 pbc="T T T"
Si      -0.97039530      -1.19811321      -1.78277518       0.00000000
Si       1.11304683      -1.65626946       1.36802266       0.00000000
Si       1.91440080       1.28003303      -0.78849084       0.00000000
Si      -1.74244356       1.05515056       1.49849732       0.00000000
Si       2.29685742      -2.25722385      -0.71238062       0.00000000
Si      -2.23845777      -2.53824264      -0.23473052       0.00000000
Si       0.30066453      -3.17146752      -1.75270270       0.00000000
Si       2.98432800       1.63367264       1.53851368       0.00000000
Si       2.41675182      -0.29624994       2.90894287       0.00000000
Si       3.30730983      -0.35277624      -1.92412272       0.00000000
