10
Lattice="16.28999089631971 0.0 0.0 0.0 16.28999089631971 0.0 0.0 0.0 34.40785480372833" Properties=species:S:1:pos:R:3:initial_magmoms:R:1 pbc="T T T"
Si      -1.10892546       2.00972988       0.36028485       0.00000000
Si       2.17189194       0.85232538      -0.21821474       0.00000000
Si      -0.27140117      -1.25770203       1.99187183       0.00000000
Si      -0.10562273      -1.15880544      -2.12375721       0.00000000
Si       1.72626270      -2.52609030      -1.53469441       0.00000000
Si      -1.16890850      -3.14555013       0.89020052       0.00000000
Si       3.25941234      -1.19860191      -0.32525763       0.00000000
Si       1.99783329       1.98444780      -2.31757676       0.00000000
Si      -1.51450025       0.32162976       3.36285357       0.00000000
Si      -2.82147265       1.58643423       1.86181006       0.00000000
