10
Lattice="16.28999089631971 0.0 0.0 0.0 16.28999089631971 0.0 0.0 0.0 34.40785480372833" Properties=species:S:1:pos:R:3:initial_magmoms:R:1 pbc="T T T"
Si       1.35549090       1.35941058       1.35560142       0.00000000
Si       1.35645201      -1.35775232      -1.35666807       0.00000000
Si      -1.35585091      -1.35760571       1.35804438       0.00000000
Si      -1.35877171       1.35745741      -1.35708096       0.00000000
Si       0.00275301       2.70983529       2.70962008       0.00000000
Si       2.71391400       2.71402182      -0.00027526       0.00000000
Si       2.71391400      -2.71511657       0.00017204       0.00000000
Si       0.00006516      -2.71516544      -2.71402429       0.00000000
Si      -0.00397476       2.71493406      -2.71443718       0.00000000
Si       2.71248048      -0.00167818       2.71787797       0.00000000
