10
Lattice="16.28999089631971 0.0 0.0 0.0 16.28999089631971 0.0 0.0 0.0 34.40785480372833" Properties=species:S:1:pos:R:3:initial_magmoms:R:1 pbc="T T T"
Si      -1.91298357       1.33247313       0.24377979       0.00000000
Si       1.73845251       0.16441497       1.59243082       0.00000000
Si       0.75649131       1.21634172      -1.90234254       0.00000000
Si      -0.31250736      -2.30249376      -0.55135177       0.00000000
Si      -1.40305770      -0.55454418       2.67968523       0.00000000
Si      -2.31732255      -1.84313205      -1.75084467       0.00000000
Si      -3.56042162      -0.26380026      -0.37986293       0.00000000
Si       0.88472619      -1.36765953       3.21916629       0.00000000
Si       3.60297333      -0.18327879       0.24735821       0.00000000
Si       1.59914043      -2.62917342      -1.91899595       0.00000000
