10
Lattice="16.28999089631971 0.0 0.0 0.0 16.28999089631971 0.0 0.0 0.0 34.40785480372833" Properties=species:S:1:pos:R:3:initial_magmoms:R:1 pbc="T T T"
Si      -1.35689836       1.35677781      -1.35704655       0.00000000
Si       1.35643572       1.35777150       1.35701214       0.00000000
Si       1.35786924      -1.35782037      -1.35756267       0.00000000
Si      -1.35814454      -1.35847197       1.35818201       0.00000000
Si       0.00167787       2.71151937       2.71330172       0.00000000
Si      -2.71292750       0.00032580      -2.71436837       0.00000000
Si       0.00122175       2.71420722      -2.71409310       0.00000000
Si      -0.00045612      -2.71476108      -2.71361139       0.00000000
Si      -2.71486753       2.71435383       0.00037849       0.00000000
Si       2.71507059       2.71425609       0.00010322       0.00000000
