10
Lattice="16.28999089631971 0.0 0.0 0.0 16.28999089631971 0.0 0.0 0.0 34.40785480372833" Properties=species:S:1:pos:R:3:initial_magmoms:R:1 pbc="T T T"
Si      -0.70490088      -1.72212993      -1.55537354       0.00000000
Si       1.34405532       1.30930875      -1.56996248       0.00000000
Si       1.60818138      -0.47144889       1.86872605       0.00000000
Si      -2.20550245       0.20823507       1.31303888       0.00000000
Si      -0.18265977      -2.00249712       2.59118818       0.00000000
Si      -1.10468029      -0.20390193      -3.44780661       0.00000000
Si      -0.19497501      -3.60914724       0.88053190       0.00000000
Si       1.20808269      -3.05460306      -1.79915333       0.00000000
Si       3.61207944      -0.85568112       0.66431282       0.00000000
Si       3.58912683       0.91701297      -0.95736469       0.00000000
