10
Lattice="16.28999089631971 0.0 0.0 0.0 16.28999089631971 0.0 0.0 0.0 34.40785480372833" Properties=species:S:1:pos:R:3:initial_magmoms:R:1 pbc="T T T"
Si      -0.95146632      -1.82715156      -1.07685601       0.00000000
Si       2.01663684       0.66249801      -1.02011089       0.00000000
Si      -1.33646418       1.33739503       1.45200884       0.00000000
Si       1.38714237      -1.38551337       1.47286690       0.00000000
Si      -0.70705116      -0.45828657      -2.88756182       0.00000000
Si       0.67465035      -3.51631053      -1.18124468       0.00000000
Si       2.78927154       2.62938912       0.12002843       0.00000000
Si       2.69146638      -2.74414824       0.03746673       0.00000000
Si      -2.67558037      -0.03705975       2.83100762       0.00000000
Si       0.03300354       2.68849413       2.82815177       0.00000000
