10
Lattice="10.86 0.0 0.0 0.0 10.86 0.0 0.0 0.0 10.86" Properties=species:S:1:pos:R:3:initial_magmoms:R:1 pbc="T T T"
Si       1.31498310      -1.33079526      -1.25141952       0.00000000
Si      -1.42193238      -1.03353534       1.43285754       0.00000000
Si      -1.40001690       1.38420474      -1.25141952       0.00000000
Si       1.31498310       1.38420474       1.46358048       0.00000000
Si       2.67248310       0.02670474      -2.60891952       0.00000000
Si       2.71158996      -2.57347248      -0.02001498       0.00000000
Si      -0.04251690      -2.68829526      -2.60891952       0.00000000
Si      -0.04251690       2.74170474      -2.60891952       0.00000000
Si      -2.75751690       0.02670474      -2.60891952       0.00000000
Si      -2.81060058      -2.55759516       0.32033742       0.00000000
