10
Lattice="10.86 0.0 0.0 0.0 10.86 0.0 0.0 0.0 10.86" Properties=species:S:1:pos:R:3:initial_magmoms:R:1 pbc="T T T"
Si      -1.39660686       1.24267722      -1.23140454       0.00000000
Si       1.31839314      -1.47232278      -1.23140454       0.00000000
Si       1.31839314       1.24267722       1.48359546       0.00000000
Si      -0.03910686       2.60017722      -2.58890454       0.00000000
Si       2.67589314      -0.11482278      -2.58890454       0.00000000
Si       2.67589314       2.60017722       0.12609546       0.00000000
Si      -2.71158996       2.57347248       0.02001498       0.00000000
Si      -2.75410686      -0.11482278      -2.58890454       0.00000000
Si      -0.03910686      -2.82982278      -2.58890454       0.00000000
Si      -0.10439718       2.40116772       3.02837616       0.00000000
