10
Lattice="10.86 0.0 0.0 0.0 10.86 0.0 0.0 0.0 10.86" Properties=species:S:1:pos:R:3:initial_magmoms:R:1 pbc="T T T"
Si       1.31656866      -1.32866670      -1.03605486       0.00000000
Si       1.31656866       1.38633330       1.67894514       0.00000000
Si      -1.39843134      -1.32866670       1.67894514       0.00000000
Si      -1.33099074       1.95354024      -1.46342844       0.00000000
Si       2.56480620      -0.01611624      -2.47072602       0.00000000
Si      -0.04093134      -2.68616670      -2.39355486       0.00000000
Si      -2.79999036       0.00565806      -2.39003622       0.00000000
Si      -2.62968384       2.65606278       0.13121052       0.00000000
Si       2.67406866      -2.68616670       0.32144514       0.00000000
Si      -2.75593134      -2.68616670       0.32144514       0.00000000
