10
Lattice="10.86 0.0 0.0 0.0 10.86 0.0 0.0 0.0 10.86" Properties=species:S:1:pos:R:3:initial_magmoms:R:1 pbc="T T T"
Si      -1.01142438      -1.45369788       1.42333332       0.00000000
Si      -1.95842724       1.44903894      -0.64159794       0.00000000
Si       1.70357562       1.26130212       1.42333332       0.00000000
Si       1.70357562      -1.45369788      -1.29166668       0.00000000
Si      -2.45775918      -0.06804876      -2.47325640       0.00000000
Si      -2.36892438      -2.81119788       0.06583332       0.00000000
Si      -2.45648856      -0.17340162       2.80160850       0.00000000
Si      -3.40244886       1.33962444       1.27464906       0.00000000
Si       0.34607562      -2.81119788      -2.64916668       0.00000000
Si       0.70237050       2.33595342       3.10337532       0.00000000
