10
Lattice="16.28999089631971 0.0 0.0 0.0 16.28999089631971 0.0 0.0 0.0 34.46413024517268" Properties=species:S:1:pos:R:3:initial_magmoms:R:1 pbc="T T T"
Si       2.10603962       0.38750652      -0.74649348       0.00000000
Si      -2.03954451       0.78366044      -0.65657651       0.00000000
Si      -0.93900840       1.03724850       1.86899362       0.00000000
Si       1.12806132      -2.03725998      -0.36893872       0.00000000
Si       1.85763341       0.38447658      -3.06362164       0.00000000
Si      -1.82269203      -0.81275697       3.11244153       0.00000000
Si      -3.07723380      -0.93452472      -1.88305220       0.00000000
Si      -1.66472790       2.31681986      -2.45326155       0.00000000
Si       0.96497399       1.92874319       3.16730156       0.00000000
Si       0.35722993      -2.81110014      -2.59556403       0.00000000
