10
Lattice="16.28999089631971 0.0 0.0 0.0 16.28999089631971 0.0 0.0 0.0 34.46413024517268" Properties=species:S:1:pos:R:3:initial_magmoms:R:1 pbc="T T T"
Si      -1.63965366       1.26252550      -1.20596952       0.00000000
Si       1.35294966       1.22926132       1.56581457       0.00000000
Si       1.71629811      -0.58693263      -1.70856021       0.00000000
Si      -1.44352206      -1.47527520       1.43388580       0.00000000
Si       2.93757570       2.24821874       0.09022714       0.00000000
Si      -0.38486754       2.84861927      -2.54397120       0.00000000
Si      -3.09599595      -0.35405079      -2.25995214       0.00000000
Si      -2.87772624       2.56105190       0.29449616       0.00000000
Si       1.46644209      -2.91306318      -2.15004597       0.00000000
Si      -0.04986369       2.58522626       3.01091014       0.00000000
