10
Lattice="16.28999089631971 0.0 0.0 0.0 16.28999089631971 0.0 0.0 0.0 34.46413024517268" Properties=species:S:1:pos:R:3:initial_magmoms:R:1 pbc="T T T"
Si      -1.35725022      -1.35575154      -1.35788749       0.00000000
Si       1.35648459       1.35780408      -1.35702589       0.00000000
Si       1.35674523      -1.35681039       1.35792195       0.00000000
Si      -1.35785295       1.35738054       1.35743946       0.00000000
Si       2.71326240       0.00001629       2.71405177       0.00000000
Si      -2.71551531       0.00166158       2.71360374       0.00000000
Si       2.71461447      -2.71471547      -0.00034464       0.00000000
Si      -2.71519602      -2.71447112      -0.00010339       0.00000000
Si       0.00074934       2.71412577      -2.71601623       0.00000000
Si       0.00122175       2.71609686       2.71405177       0.00000000
