10
Lattice="16.28999089631971 0.0 0.0 0.0 16.28999089631971 0.0 0.0 0.0 34.46413024517268" Properties=species:S:1:pos:R:3:initial_magmoms:R:1 pbc="T T T"
Si       1.31590620      -1.37158542      -1.41961278       0.00000000
Si      -1.90915542      -0.93201606       1.08417322       0.00000000
Si      -1.37502261       1.35749457      -1.43115827       0.00000000
Si       1.88954226       0.97850772       1.58945211       0.00000000
Si      -0.24970941       1.12601367       2.82712865       0.00000000
Si      -0.83103435      -1.11601161       3.07830337       0.00000000
Si      -2.48442048       2.74453920       0.09877425       0.00000000
Si       2.76288174      -2.54752794       0.14364658       0.00000000
Si      -3.57454728       0.84950721       1.06721685       0.00000000
Si       2.75066424       2.69172702       0.01440601       0.00000000
