10
Lattice="16.28999089631971 0.0 0.0 0.0 16.28999089631971 0.0 0.0 0.0 34.46413024517268" Properties=species:S:1:pos:R:3:initial_magmoms:R:1 pbc="T T T"
Si      -2.18434239      -0.81282036       0.14764442       0.00000000
Si       1.33187040      -1.21638882      -1.48923036       0.00000000
Si       0.92282850      -0.74899614       2.08966478       0.00000000
Si       0.25676298       1.95866969      -1.41030746       0.00000000
Si       1.89654696       0.75514820      -2.58532818       0.00000000
Si      -0.53295993       0.66949212       3.22891170       0.00000000
Si      -2.41538509      -0.62147802       2.55000242       0.00000000
Si       3.22963911      -0.34005198       1.71662482       0.00000000
Si       3.27790638      -1.74040554      -0.22997927       0.00000000
Si      -2.07599760      -3.11546073      -0.49924767       0.00000000
