10
Lattice="16.28999089631971 0.0 0.0 0.0 16.28999089631971 0.0 0.0 0.0 34.46413024517268" Properties=species:S:1:pos:R:3:initial_magmoms:R:1 pbc="T T T"
Si      -1.35775521      -1.34467434      -1.36205421       0.00000000
Si      -1.35474156       1.35607734       1.35709482       0.00000000
Si       1.35954711      -1.35726651       1.35788749       0.00000000
Si       1.34853507       1.36743147      -1.38569661       0.00000000
Si      -0.02072088      -2.70475902      -2.71860104       0.00000000
Si      -2.71091012       2.71440270      -0.00382552       0.00000000
Si      -2.71294149      -2.71349046      -0.00451480       0.00000000
Si      -2.71215142      -0.00034209       2.71460320       0.00000000
Si       0.00229689      -2.71466334       2.71449981       0.00000000
Si       0.00267156       2.71508688       2.71418963       0.00000000
