10
Lattice="16.28999089631971 0.0 0.0 0.0 16.28999089631971 0.0 0.0 0.0 34.46413024517268" Properties=species:S:1:pos:R:3:initial_magmoms:R:1 pbc="T T T"
Si       1.35725022       1.35739683      -1.35661232       0.00000000
Si      -1.35692442       1.35703845       1.35781856       0.00000000
Si       1.35889551      -1.35782037       1.35709482       0.00000000
Si      -1.35720135      -1.35879777      -1.35819767       0.00000000
Si       2.71479366       0.00034209       2.71360374       0.00000000
Si      -2.71444831       2.71432125       0.00010339       0.00000000
Si       0.00187335      -2.71474479       2.71405177       0.00000000
Si      -0.00229689       2.71466334      -2.71449981       0.00000000
Si      -2.71409971      -0.00024435       2.71525802       0.00000000
Si       2.71511946       2.71482624       0.00027571       0.00000000
