10
Lattice="16.28999089631971 0.0 0.0 0.0 16.28999089631971 0.0 0.0 0.0 34.46413024517268" Properties=species:S:1:pos:R:3:initial_magmoms:R:1 pbc="T T T"
Si      -1.35382932       1.35063648       1.35675017       0.00000000
Si      -1.35589815      -1.35816246      -1.35650892       0.00000000
Si       1.35845568       1.35589815      -1.35675017       0.00000000
Si       1.35742941      -1.35650088       1.35871463       0.00000000
Si      -2.68377750       0.00257382       2.72776851       0.00000000
Si       2.70886410       0.00179190       2.70822733       0.00000000
Si       2.71375110       2.71322982       0.00082714       0.00000000
Si      -2.71215468       2.71549413       0.00120625       0.00000000
Si       0.00032580       2.71448415      -2.71332803       0.00000000
Si      -2.71292031      -2.71508688       0.00044803       0.00000000
