10
Lattice="16.28999089631971 0.0 0.0 0.0 16.28999089631971 0.0 0.0 0.0 34.46413024517268" Properties=species:S:1:pos:R:3:initial_magmoms:R:1 pbc="T T T"
Si       1.35725964       1.35651442       1.35709482       0.00000000
Si      -1.35801850      -1.35816913       1.35719821       0.00000000
Si      -1.35853978       1.35720023      -1.36081694       0.00000000
Si       1.35859705      -1.35909766      -1.36112712       0.00000000
Si      -2.71188040      -0.00295515      -2.71213901       0.00000000
Si      -2.71533388       2.71283937       0.00051696       0.00000000
Si      -0.00004306       2.71383306       2.71453427       0.00000000
Si       2.71406514      -0.00084789       2.71491338       0.00000000
Si      -2.71520356      -0.00117269       2.71436195       0.00000000
Si      -0.00023323      -2.71569628       2.71456874       0.00000000
