10
Lattice="16.28999089631971 0.0 0.0 0.0 16.28999089631971 0.0 0.0 0.0 34.46413024517268" Properties=species:S:1:pos:R:3:initial_magmoms:R:1 pbc="T T T"
Si      -1.37194380       1.23609660       1.40213946       0.00000000
Si       1.33621983       1.37216697      -1.34785842       0.00000000
Si      -1.37673306      -1.34376661      -1.34610075       0.00000000
Si       1.26923535      -1.43617105       1.38476953       0.00000000
Si      -2.26820331      -0.76901180       2.68565331       0.00000000
Si       0.25145244       2.50016802       2.66421661       0.00000000
Si      -0.40777128      -2.46024190       2.76867745       0.00000000
Si       2.69368182       0.01529305      -2.70736573       0.00000000
Si       2.69027721      -2.71824292       0.01857618       0.00000000
Si      -0.02114442      -2.70213211      -2.70767591       0.00000000
