10
Lattice="16.28999089631971 0.0 0.0 0.0 16.28999089631971 0.0 0.0 0.0 34.46413024517268" Properties=species:S:1:pos:R:3:initial_magmoms:R:1 pbc="T T T"
Si      -0.04251690      -0.58585356       2.24344381       0.00000000
Si       1.54807128       1.76220333      -0.37641744       0.00000000
Si       0.94723092      -1.72430464      -1.36350515       0.00000000
Si      -2.28635037       0.77488272      -0.00192999       0.00000000
Si       1.50519600       1.56652785      -2.73607437       0.00000000
Si      -0.58160187       1.56294405       3.11766143       0.00000000
Si      -1.79794359      -2.19715447       2.26670711       0.00000000
Si       0.91305450      -0.64016442      -3.46206167       0.00000000
Si      -2.10839841       2.58773166       1.61516237       0.00000000
Si       2.04291261      -1.36470289       2.94854585       0.00000000
