10
Lattice="16.28999089631971 0.0 0.0 0.0 16.28999089631971 0.0 0.0 0.0 34.46413024517268" Properties=species:S:1:pos:R:3:initial_magmoms:R:1 pbc="T T T"
Si       1.65079276      -0.41265828      -1.68316013       0.00000000
Si      -1.66923045      -1.70590509      -0.18545159       0.00000000
Si      -0.51547491       2.29702032      -0.62435253       0.00000000
Si       1.31806625       0.52636248       2.29079755       0.00000000
Si      -0.46121292      -3.27725804      -1.62243430       0.00000000
Si       2.96428804       1.51378083      -1.78551866       0.00000000
Si      -3.76109451      -0.45429552      -0.04073662       0.00000000
Si       1.26278940       3.07861452      -2.02476878       0.00000000
Si      -0.67772331       3.64143402       1.54595835       0.00000000
Si       0.96499028       0.05279589      -3.89817102       0.00000000
