10
Lattice="16.28999089631971 0.0 0.0 0.0 16.28999089631971 0.0 0.0 0.0 34.46413024517268" Properties=species:S:1:pos:R:3:initial_magmoms:R:1 pbc="T T T"
Si      -1.34358291      -1.34648253       1.36895048       0.00000000
Si       1.36997271       1.36785501       1.36536621       0.00000000
Si      -1.40486589       1.28653533      -1.44082547       0.00000000
Si       1.38010509      -1.35542574      -1.41290261       0.00000000
Si       0.40263993       2.18320209      -2.78392581       0.00000000
Si       2.21615676       0.33736590      -2.82262905       0.00000000
Si      -2.70221778      -2.70666495      -0.02833298       0.00000000
Si       2.73869109      -2.68680744      -0.00361874       0.00000000
Si       0.00962739      -2.70231552       2.72797529       0.00000000
Si      -2.70440064       0.01094688       2.72804422       0.00000000
