10
Lattice="16.28999089631971 0.0 0.0 0.0 16.28999089631971 0.0 0.0 0.0 34.46413024517268" Properties=species:S:1:pos:R:3:initial_magmoms:R:1 pbc="T T T"
Si       1.35712347       1.35674523       1.35588857       0.00000000
Si      -1.35743140      -1.35804843       1.35540607       0.00000000
Si       1.35481680      -1.35829278      -1.36209212       0.00000000
Si      -1.36010296       1.35920502      -1.35754285       0.00000000
Si      -2.71416034       2.71303434      -0.00079268       0.00000000
Si       0.00002947       2.71407690       2.71346588       0.00000000
Si      -2.71492597      -0.00117288       2.71308678       0.00000000
Si       2.71481515      -0.00127062       2.71336249       0.00000000
Si       2.71481515       2.71339272      -0.00227463       0.00000000
Si       0.00016938      -2.71580364       2.71325910       0.00000000
