10
Lattice="16.28999089631971 0.0 0.0 0.0 16.28999089631971 0.0 0.0 0.0 34.46413024517268" Properties=species:S:1:pos:R:3:initial_magmoms:R:1 pbc="T T T"
Si      -0.41044284      -0.06801075       2.30971837       0.00000000
Si      -1.96027344      -0.66257946      -1.22943961       0.00000000
Si       0.66803661       1.97012889      -1.25139327       0.00000000
Si       1.84086774      -1.68552630      -0.04573393       0.00000000
Si      -0.69331869      -1.99759383      -2.69454506       0.00000000
Si       2.04304293       0.72197280      -2.68906527       0.00000000
Si      -2.61122184      -0.81241488       2.20970341       0.00000000
Si       0.60548301      -3.33117468      -1.25949234       0.00000000
Si       2.03502825       2.29662936       1.99916192       0.00000000
Si      -2.82139542      -2.37579876       0.34560649       0.00000000
