10
Lattice="16.28999089631971 0.0 0.0 0.0 16.28999089631971 0.0 0.0 0.0 34.46413024517268" Properties=species:S:1:pos:R:3:initial_magmoms:R:1 pbc="T T T"
Si      -1.35776368      -1.35651554       1.35702589       0.00000000
Si       1.35730270      -1.35731864      -1.35743946       0.00000000
Si       1.35698341       1.35881406       1.35626768       0.00000000
Si      -1.35760078       1.35775521      -1.35785303       0.00000000
Si       0.00193417       2.71327869       2.71394838       0.00000000
Si       0.00004306      -2.71383306      -2.71453427       0.00000000
Si       2.71410820      -2.71468095       0.00037911       0.00000000
Si      -0.00016938       2.71580364      -2.71325910       0.00000000
Si       2.71464577       2.71453302       0.00010339       0.00000000
Si      -2.71529083      -0.00099369      -2.71401731       0.00000000
