10
Lattice="16.28999089631971 0.0 0.0 0.0 16.28999089631971 0.0 0.0 0.0 34.46413024517268" Properties=species:S:1:pos:R:3:initial_magmoms:R:1 pbc="T T T"
Si      -1.33980363      -1.32898707      -1.37501617       0.00000000
Si      -1.47204585       1.20218571       1.42123260       0.00000000
Si       1.37233476       1.38319146      -1.37088047       0.00000000
Si       1.36738260      -1.43337339       1.41847547       0.00000000
Si       0.48086451       1.95794627       2.66087359       0.00000000
Si       2.34129654       0.26671617       2.74389773       0.00000000
Si      -2.70104490      -2.69614161       0.00368766       0.00000000
Si       0.01091430      -2.68965819      -2.73207652       0.00000000
Si       2.74238892      -2.68152948      -0.01919653       0.00000000
Si      -2.70290196       0.02427210      -2.73121492       0.00000000
