10
Lattice="16.28999089631971 0.0 0.0 0.0 16.28999089631971 0.0 0.0 0.0 34.46413024517268" Properties=species:S:1:pos:R:3:initial_magmoms:R:1 pbc="T T T"
Si       1.18332189      -1.43330825      -1.42731207       0.00000000
Si       1.35334062       1.36015538       1.35132207       0.00000000
Si      -1.35014778       1.32372116      -1.39076284       0.00000000
Si      -1.36203948      -1.35179309       1.35166671       0.00000000
Si       2.06700552       0.41669722      -2.67075998       0.00000000
Si      -2.40578865      -0.45831917      -2.66345840       0.00000000
Si      -0.57476007      -2.45910584      -2.78807874       0.00000000
Si       2.71188040       0.00295515       2.71213901       0.00000000
Si      -0.00353493      -2.71389773       2.71162205       0.00000000
Si      -2.72214045       2.70606939      -0.01693224       0.00000000
