10
Lattice="16.28999089631971 0.0 0.0 0.0 16.28999089631971 0.0 0.0 0.0 34.46413024517268" Properties=species:S:1:pos:R:3:initial_magmoms:R:1 pbc="T T T"
Si       1.42370106      -1.23754804      -1.38339096       0.00000000
Si      -1.29885057       1.48970421      -1.36367747       0.00000000
Si       1.61155082       1.15455375       1.36464246       0.00000000
Si      -1.12492224      -1.74180010       1.37663599       0.00000000
Si       2.69311886      -2.42264065       0.27226678       0.00000000
Si       0.75247487      -3.22423802       1.64297494       0.00000000
Si       0.06245586      -2.58311249      -2.73610883       0.00000000
Si      -2.65564467       0.13299156      -2.73459241       0.00000000
Si      -2.72262915      -2.67534647      -0.00196446       0.00000000
Si       2.71673936       2.78943444      -0.03305112       0.00000000
