10
Lattice="16.28999089631971 0.0 0.0 0.0 16.28999089631971 0.0 0.0 0.0 34.46413024517268" Properties=species:S:1:pos:R:3:initial_magmoms:R:1 pbc="T T T"
Si      -0.55293147       1.97112910       1.23964099       0.00000000
Si      -1.72429650      -1.67054017       0.18162607       0.00000000
Si       1.78706906      -1.14523654       1.14317584       0.00000000
Si       0.67917150       0.57662853      -2.29231398       0.00000000
Si      -0.43536654      -3.71241022       0.25251882       0.00000000
Si      -2.85584877       2.34343705       0.78226727       0.00000000
Si       2.51114327       2.09874496      -2.00639939       0.00000000
Si       1.89541385      -3.44787691       0.49628375       0.00000000
Si       1.55602636      -0.95389420       3.54553384       0.00000000
Si       0.70920700       3.90900379       0.62342200       0.00000000
