10
Lattice="16.28999089631971 0.0 0.0 0.0 16.28999089631971 0.0 0.0 0.0 34.46413024517268" Properties=species:S:1:pos:R:3:initial_magmoms:R:1 pbc="T T T"
Si       0.07394031      -2.14543372       0.83003458       0.00000000
Si       1.86761333       1.13409351       0.93308238       0.00000000
Si      -2.18957148       0.31568391       0.87225316       0.00000000
Si      -0.06934653       0.04321737      -2.43520234       0.00000000
Si      -2.89701360       1.65154536      -0.96878724       0.00000000
Si       2.03961130      -2.88180593      -0.12930949       0.00000000
Si      -2.37226383       0.41552532      -2.89257607       0.00000000
Si       1.51507981       3.44825091       0.68652586       0.00000000
Si       1.19279194       1.98109206      -3.05142133       0.00000000
Si      -1.99914138      -3.28956092       0.48811575       0.00000000
