10
Lattice="16.28999089631971 0.0 0.0 0.0 16.28999089631971 0.0 0.0 0.0 34.46413024517268" Properties=species:S:1:pos:R:3:initial_magmoms:R:1 pbc="T T T"
Si       1.40019066      -1.55036558      -1.10178440       0.00000000
Si      -2.29428360       0.37977040      -0.65878222       0.00000000
Si      -0.39343608      -0.98314778       2.24916486       0.00000000
Si       1.20976056       2.05487924      -0.71764699       0.00000000
Si       3.47327235      -0.40623839      -0.75986557       0.00000000
Si       0.52329996       3.39737072       1.05191477       0.00000000
Si       0.52556427      -1.62534845      -3.30759336       0.00000000
Si      -2.32846002       1.46391062      -2.75733875       0.00000000
Si      -1.19860191       0.73937215       3.65326878       0.00000000
Si      -3.24151452       2.10407504       0.70472293       0.00000000
