10
Lattice="16.28999089631971 0.0 0.0 0.0 16.28999089631971 0.0 0.0 0.0 34.46413024517268" Properties=species:S:1:pos:R:3:initial_magmoms:R:1 pbc="T T T"
Si       0.68646060      -1.34249148      -1.76956176       0.00000000
Si       1.32251994       1.96428078       0.14468050       0.00000000
Si      -2.21674320       0.46890765      -0.72360928       0.00000000
Si       0.01756062      -1.03117329       2.14870187       0.00000000
Si      -2.28581280       2.53187325       0.48401452       0.00000000
Si      -0.52329996      -3.39737072      -1.05191477       0.00000000
Si      -0.02098152      -0.00663003      -3.61060216       0.00000000
Si       2.10942468      -2.28278286       2.00398690       0.00000000
Si      -0.22959126       3.73619295       0.32196408       0.00000000
Si      -2.25961848       0.27323217      -3.08326621       0.00000000
