10
Lattice="16.28999089631971 0.0 0.0 0.0 16.28999089631971 0.0 0.0 0.0 34.46413024517268" Properties=species:S:1:pos:R:3:initial_magmoms:R:1 pbc="T T T"
Si       0.83605167       1.69279164      -1.40972644       0.00000000
Si       1.35858600      -1.33138170       1.40928388       0.00000000
Si      -1.38010509       1.35542574       1.41290261       0.00000000
Si      -0.77014233      -1.91739816      -1.29968241       0.00000000
Si       2.79899667      -2.47880043      -0.12360567       0.00000000
Si       2.70477531       2.65246812      -0.21319178       0.00000000
Si       1.31048163       0.50867154      -3.52937502       0.00000000
Si      -2.78497098       2.64196107      -0.02792285       0.00000000
Si       0.93830400      -3.57111009      -1.06190593       0.00000000
Si      -2.67634926      -2.80536606      -0.10142799       0.00000000
