10
Lattice="16.28999089631971 0.0 0.0 0.0 16.28999089631971 0.0 0.0 0.0 34.46413024517268" Properties=species:S:1:pos:R:3:initial_magmoms:R:1 pbc="T T T"
Si      -0.80948498      -0.10006947       2.29679432       0.00000000
Si       0.98617542      -1.72320507      -1.48754162       0.00000000
Si      -1.76401382       1.29801978      -1.20910576       0.00000000
Si       1.73842482       1.33599177       1.23485048       0.00000000
Si       2.09136396      -0.08832438      -2.88523520       0.00000000
Si      -1.45166936       2.13262164       2.55934221       0.00000000
Si      -2.65074368      -1.50824223       2.18171852       0.00000000
Si      -3.06566627       2.10494493       0.83785794       0.00000000
Si       3.00293607       1.75627377      -1.70394202       0.00000000
Si      -0.53195581       2.63638989      -2.80913836       0.00000000
