10
Lattice="16.28999089631971 0.0 0.0 0.0 16.28999089631971 0.0 0.0 0.0 34.46413024517268" Properties=species:S:1:pos:R:3:initial_magmoms:R:1 pbc="T T T"
Si      -1.35622395       1.35511623       1.36016212       0.00000000
Si      -1.35755973      -1.35679410      -1.35719821       0.00000000
Si       1.35746199       1.35773892      -1.35733606       0.00000000
Si       1.35733167      -1.35653346       1.35936945       0.00000000
Si       2.71479366      -2.71340738      -0.00013786       0.00000000
Si       2.71453302       2.71383255       0.00000000       0.00000000
Si      -2.71451673      -2.71418278       0.00013786       0.00000000
Si      -0.00040725      -2.71460144      -2.71480998       0.00000000
Si      -2.71477737       0.00021177      -2.71491338       0.00000000
Si       2.71495656       0.00086337      -2.71501677       0.00000000
