10
Lattice="16.28999089631971 0.0 0.0 0.0 16.28999089631971 0.0 0.0 0.0 34.46413024517268" Properties=species:S:1:pos:R:3:initial_magmoms:R:1 pbc="T T T"
Si      -1.35707103      -1.35609363      -1.35733606       0.00000000
Si       1.35788440       1.35915615      -1.35695696       0.00000000
Si       1.35995848      -1.35744570       1.35678464       0.00000000
Si      -1.35664749       1.35852084       1.36102373       0.00000000
Si       2.70230967      -0.01290168       2.70812394       0.00000000
Si       0.01860318       2.69625564       2.71487891       0.00000000
Si       2.71500773      -2.71191033      -0.00089607       0.00000000
Si       0.00042354      -2.71296918      -2.71501677       0.00000000
Si      -2.71453302      -2.71383255       0.00000000       0.00000000
Si      -2.71432125       0.00180819      -2.71470659       0.00000000
