10
Lattice="16.28999089631971 0.0 0.0 0.0 16.28999089631971 0.0 0.0 0.0 34.46413024517268" Properties=species:S:1:pos:R:3:initial_magmoms:R:1 pbc="T T T"
Si       1.35721764       1.35575449       1.35671571       0.00000000
Si      -1.35680550       1.35736231      -1.35781856       0.00000000
Si       1.35811359      -1.35756559      -1.35802535       0.00000000
Si      -1.35769331      -1.35937378       1.35671571       0.00000000
Si      -2.71123334      -0.00106471       2.71463766       0.00000000
Si       0.00092853       2.71225374       2.71556820       0.00000000
Si      -2.71410820       2.71468095      -0.00037911       0.00000000
Si      -2.71406514       0.00084789      -2.71491338       0.00000000
Si      -2.71429837      -2.71484839      -0.00034464       0.00000000
Si       2.71513575       2.71502304       0.00020678       0.00000000
