10
Lattice="16.28999089631971 0.0 0.0 0.0 16.28999089631971 0.0 0.0 0.0 34.46413024517268" Properties=species:S:1:pos:R:3:initial_magmoms:R:1 pbc="T T T"
Si       2.13452757      -0.90179811       0.17380271       0.00000000
Si      -0.40252590       1.69829766       1.57659698       0.00000000
Si      -1.23852381      -2.06101080       0.15532992       0.00000000
Si      -0.29388789       0.10863801      -2.45712154       0.00000000
Si       1.89956061      -1.83055617      -2.10362276       0.00000000
Si      -2.84179769      -1.32742323      -1.39517770       0.00000000
Si      -3.48398207       0.90526788      -1.13262981       0.00000000
Si       1.14129369       3.50867052       1.01100583       0.00000000
Si       3.74634162       0.86037264      -0.00923639       0.00000000
Si      -1.98247508       2.66541867      -1.93905644       0.00000000
