10
Lattice="16.28999089631971 0.0 0.0 0.0 16.28999089631971 0.0 0.0 0.0 34.46413024517268" Properties=species:S:1:pos:R:3:initial_magmoms:R:1 pbc="T T T"
Si       1.35709400      -1.35733167      -1.35757731       0.00000000
Si      -1.35755860       1.35734796      -1.35764624       0.00000000
Si       1.35788733       1.35786924       1.35771517       0.00000000
Si      -1.35788440      -1.35915615       1.35695696       0.00000000
Si      -0.00002947      -2.71407690      -2.71346588       0.00000000
Si      -2.71418980      -0.00104256      -2.71425856       0.00000000
Si       2.71478568      -2.71534752      -0.00010339       0.00000000
Si      -2.71523236       2.71495656      -0.00055143       0.00000000
Si      -2.71495543      -2.71524978      -0.00037911       0.00000000
Si       2.71506261       2.71515204       0.00027571       0.00000000
