10
Lattice="16.28999089631971 0.0 0.0 0.0 16.28999089631971 0.0 0.0 0.0 34.46413024517268" Properties=species:S:1:pos:R:3:initial_magmoms:R:1 pbc="T T T"
Si       1.32994818       1.34806266      -1.37101833       0.00000000
Si      -1.10939787       1.38704463       1.52993252       0.00000000
Si      -1.38911346      -1.36065483      -1.36464246       0.00000000
Si       1.37502261      -1.35749457       1.43115827       0.00000000
Si      -2.19952467      -0.50798736       2.49837513       0.00000000
Si      -0.53413281      -2.28951063       2.51533149       0.00000000
Si       2.68556940       2.70417258       0.00882282       0.00000000
Si       2.68377750      -0.00257382      -2.72776851       0.00000000
Si       2.69092881      -2.72907999       0.01154549       0.00000000
Si      -0.02837718       2.71292031      -2.72656226       0.00000000
