10
Lattice="16.28999089631971 0.0 0.0 0.0 16.28999089631971 0.0 0.0 0.0 34.46413024517268" Properties=species:S:1:pos:R:3:initial_magmoms:R:1 pbc="T T T"
Si      -1.35725964      -1.35651442      -1.35709482       0.00000000
Si       1.35680550      -1.35736231       1.35781856       0.00000000
Si      -1.35730270       1.35731864       1.35743946       0.00000000
Si       1.35794580       1.35871958      -1.35778410       0.00000000
Si       2.71402314      -0.00160782       2.71453427       0.00000000
Si      -2.71506637       0.00080310       2.71446534       0.00000000
Si       2.71519602       2.71447112       0.00010339       0.00000000
Si      -0.00031928       2.71613270       2.71370713       0.00000000
Si       2.71491909      -2.71492791      -0.00020678       0.00000000
Si      -2.71527814      -2.71468356       0.00010339       0.00000000
