10
Lattice="16.28999089631971 0.0 0.0 0.0 16.28999089631971 0.0 0.0 0.0 34.46413024517268" Properties=species:S:1:pos:R:3:initial_magmoms:R:1 pbc="T T T"
Si      -1.86950002      -0.90140715      -1.08823998       0.00000000
Si      -1.34008219       1.43381322       1.29574863       0.00000000
Si       1.09012680       1.89503199      -0.96844260       0.00000000
Si       1.66539186      -1.78152327       0.01695636       0.00000000
Si       2.19952467       0.50798736      -2.49837513       0.00000000
Si      -0.55905325      -2.22509997      -2.51712362       0.00000000
Si       2.19734181       2.29638501       1.30129736       0.00000000
Si       0.40088061      -2.20180527       2.95574885       0.00000000
Si      -1.28770658       0.35497539       3.47381395       0.00000000
Si       3.32483787       0.27650646       1.75991179       0.00000000
