10
Lattice="16.28999089631971 0.0 0.0 0.0 16.28999089631971 0.0 0.0 0.0 34.46413024517268" Properties=species:S:1:pos:R:3:initial_magmoms:R:1 pbc="T T T"
Si       1.35616856      -1.35832536       1.36092034       0.00000000
Si      -1.35859705       1.35909766       1.36112712       0.00000000
Si       1.35530519       1.34418564      -1.38060970       0.00000000
Si      -1.35519082      -1.37021706      -1.39468142       0.00000000
Si      -0.09948955       2.66433443      -2.72346393       0.00000000
Si       2.71091012      -2.71440270       0.00382552       0.00000000
Si      -2.71485623      -2.71494027      -0.00027571       0.00000000
Si       2.71578083       2.71468519       0.00017232       0.00000000
Si       2.71358168       0.00068418       2.71801515       0.00000000
Si      -0.00124130      -2.71474479       2.71842872       0.00000000
