10
Lattice="16.28999089631971 0.0 0.0 0.0 16.28999089631971 0.0 0.0 0.0 34.46413024517268" Properties=species:S:1:pos:R:3:initial_magmoms:R:1 pbc="T T T"
Si      -1.26941780       1.18509261      -1.65565774       0.00000000
Si       0.81352260       1.83180235       1.41771725       0.00000000
Si      -1.94064399      -0.80159736       1.37070815       0.00000000
Si       1.42288263      -1.49890710      -1.63587532       0.00000000
Si       0.53569665      -2.16342507       1.41726922       0.00000000
Si       2.09098440      -0.57159885       2.61589788       0.00000000
Si      -2.69311886       2.42264065      -0.27226678       0.00000000
Si      -2.56952791      -2.78635467      -0.16194704       0.00000000
Si       2.73870738       2.63818993      -0.02240170       0.00000000
Si      -1.08156803       3.57719440       1.09237568       0.00000000
