10
Lattice="16.28999089631971 0.0 0.0 0.0 16.28999089631971 0.0 0.0 0.0 34.46413024517268" Properties=species:S:1:pos:R:3:initial_magmoms:R:1 pbc="T T T"
Si      -0.13313817       0.21356190       2.46535847       0.00000000
Si       1.55528775       1.59182622       1.19862866       0.00000000
Si      -0.53569665       2.16342507      -1.41726922       0.00000000
Si      -1.02306087      -1.97314254       1.56215650       0.00000000
Si       2.06679375      -0.84841578      -1.71331626       0.00000000
Si      -2.47634064       1.36182771      -0.04656107       0.00000000
Si       0.93144591      -2.99198430       0.74304706       0.00000000
Si       0.88718598       0.66451797      -3.05314454       0.00000000
Si       3.23330436       0.34858971      -0.08392020       0.00000000
Si      -3.10522456      -0.62292960      -1.57921626       0.00000000
