10
Lattice="16.28999089631971 0.0 0.0 0.0 16.28999089631971 0.0 0.0 0.0 34.46413024517268" Properties=species:S:1:pos:R:3:initial_magmoms:R:1 pbc="T T T"
Si       2.18291864      -0.87403995      -0.09394927       0.00000000
Si      -1.64971829      -1.68282216       0.30821289       0.00000000
Si      -0.29436519       1.88390170       1.73151334       0.00000000
Si      -0.16028383       0.27422586      -2.60586881       0.00000000
Si      -1.76119076       2.96648135       0.26885483       0.00000000
Si       1.29299594      -3.06074439      -0.99715124       0.00000000
Si      -3.49949666      -0.21867696       0.29391027       0.00000000
Si       2.31605681      -1.08760185      -2.55930774       0.00000000
Si      -2.03768093       1.75666377      -2.87220776       0.00000000
Si      -3.38993012       1.81230064      -0.85098878       0.00000000
