10
Lattice="10.86 0.0 0.0 0.0 10.86 0.0 0.0 0.0 10.86" Properties=species:S:1:pos:R:3:initial_magmoms:R:1 pbc="T T T"
Si      -1.57133340      -1.06210800       1.28861502       0.00000000
Si      -1.31212692       1.39249092      -1.33097988       0.00000000
Si       1.40287308      -1.32250908      -1.33097988       0.00000000
Si       1.40287308       1.39249092       1.38402012       0.00000000
Si      -0.07133934      -2.28623634       2.81062230       0.00000000
Si       2.63473374      -0.08228622       2.68691604       0.00000000
Si      -2.66962692       0.03499092      -2.68847988       0.00000000
Si       0.04537308      -2.68000908      -2.68847988       0.00000000
Si      -2.66962692       2.74999092       0.02652012       0.00000000
Si       2.90211780      -2.50051500      -0.21455016       0.00000000
