10
Lattice="10.86 0.0 0.0 0.0 10.86 0.0 0.0 0.0 10.86" Properties=species:S:1:pos:R:3:initial_magmoms:R:1 pbc="T T T"
Si       1.38223908       1.16365986       1.25990118       0.00000000
Si      -1.33276092       1.16365986      -1.45509882       0.00000000
Si      -1.33276092      -1.55134014       1.25990118       0.00000000
Si       1.52073666      -1.33470486      -1.36922880       0.00000000
Si       0.02473908       2.52115986       2.61740118       0.00000000
Si       2.71103610       2.45722704      -0.21782988       0.00000000
Si      -2.69026092       2.52115986      -0.09759882       0.00000000
Si      -2.69026092      -0.19384014       2.61740118       0.00000000
Si       2.73973908      -0.19384014       2.61740118       0.00000000
Si       2.62302666       0.19993260      -2.74349664       0.00000000
