10
Lattice="10.86 0.0 0.0 0.0 10.86 0.0 0.0 0.0 10.86" Properties=species:S:1:pos:R:3:initial_magmoms:R:1 pbc="T T T"
Si       1.04973846       1.29480522       1.43483406       0.00000000
Si      -1.66526154       1.29480522      -1.28016594       0.00000000
Si      -1.66526154      -1.42019478       1.43483406       0.00000000
Si       1.53563658      -1.94725230      -1.17088176       0.00000000
Si       2.22374790       0.00572322      -2.36820762       0.00000000
Si       2.40723846       2.65230522       0.07733406       0.00000000
Si      -0.45175428      -2.76028620      -2.49446598       0.00000000
Si      -0.30776154       2.65230522      -2.63766594       0.00000000
Si       2.47313694       0.05330088       2.93421996       0.00000000
Si      -0.30776154       2.65230522       2.79233406       0.00000000
