10
Lattice="16.28999089631971 0.0 0.0 0.0 16.28999089631971 0.0 0.0 0.0 34.279985188174585" Properties=species:S:1:pos:R:3:initial_magmoms:R:1 pbc="T T T"
Si       1.35557235      -1.35346843       1.35933929       0.00000000
Si      -1.35681039      -1.35659849      -1.35796809       0.00000000
Si       1.35808101       1.35833351      -1.35752245       0.00000000
Si      -1.35702216       1.35880592       1.35944213       0.00000000
Si       2.70448209       0.00949707       2.72323783       0.00000000
Si      -2.71450858      -2.71331031      -0.00058276       0.00000000
Si       0.00099369      -2.71399449      -2.71446214       0.00000000
Si      -2.71316792       2.71597468      -0.00003428       0.00000000
Si      -2.71444017       0.00118428      -2.71473638       0.00000000
Si       2.71533123       0.00098554      -2.71425646       0.00000000
