10
Lattice="16.28999089631971 0.0 0.0 0.0 16.28999089631971 0.0 0.0 0.0 34.279985188174585" Properties=species:S:1:pos:R:3:initial_magmoms:R:1 pbc="T T T"
Si      -2.10498633      -0.55022733      -0.88531539       0.00000000
Si       1.17359513       1.39875714      -1.50225263       0.00000000
Si       1.24522226      -1.90498518       0.65049736       0.00000000
Si       0.19870379       1.31082372       2.29340085       0.00000000
Si       3.45315257      -0.82386675       0.16310426       0.00000000
Si      -2.02127202       2.16412650       1.97490533       0.00000000
Si       1.37171411       3.47366331      -0.48972414       0.00000000
Si      -3.40167033      -1.31582475       0.97440912       0.00000000
Si      -2.98653597       1.49366268      -1.77292754       0.00000000
Si       3.27634091       0.43160355      -1.86592920       0.00000000
