10
Lattice="16.28999089631971 0.0 0.0 0.0 16.28999089631971 0.0 0.0 0.0 34.279985188174585" Properties=species:S:1:pos:R:3:initial_magmoms:R:1 pbc="T T T"
Si      -0.41588370       0.43478010      -2.26158901       0.00000000
Si      -1.58889402      -1.72805949       0.52153599       0.00000000
Si      -1.12018185       1.98411290       0.85233803       0.00000000
Si       1.96827183      -1.68883317      -0.38109081       0.00000000
Si       2.77562052       0.24550659      -1.81300087       0.00000000
Si       1.85262912       0.89985375       2.88010313       0.00000000
Si      -0.50661900      -2.25603468       2.89587193       0.00000000
Si      -0.61400268      -1.64012607      -3.27411750       0.00000000
Si       1.28616066       2.12436654      -2.81788492       0.00000000
Si      -3.43371113       1.27336716       1.16699419       0.00000000
