10
Lattice="16.28999089631971 0.0 0.0 0.0 16.28999089631971 0.0 0.0 0.0 34.279985188174585" Properties=species:S:1:pos:R:3:initial_magmoms:R:1 pbc="T T T"
Si      -1.06337862      -1.68865072       1.24775788       0.00000000
Si       1.34905635       1.44915840       1.28118088       0.00000000
Si      -1.38966732       1.30864086      -1.44517642       0.00000000
Si       1.31541750      -1.39606114      -1.45881986       0.00000000
Si      -0.78262047       1.97993547       2.40937011       0.00000000
Si       1.76604777      -1.84926035       2.36148094       0.00000000
Si      -2.80188000       2.59416621       0.00209108       0.00000000
Si       2.56717368      -2.89698821      -0.11737473       0.00000000
Si      -0.03070665       2.66711283      -2.82175856       0.00000000
Si       2.74815558       2.75123439      -0.10270289       0.00000000
