10
Lattice="16.28999089631971 0.0 0.0 0.0 16.28999089631971 0.0 0.0 0.0 34.279985188174585" Properties=species:S:1:pos:R:3:initial_magmoms:R:1 pbc="T T T"
Si       2.18009070       0.21856293      -0.73770569       0.00000000
Si      -0.63488646      -2.05347195       0.94252872       0.00000000
Si      -1.24517502       1.17639864       1.62895153       0.00000000
Si      -1.80232560      -0.71856819      -1.54493124       0.00000000
Si       1.68679692      -1.19371817      -2.60980529       0.00000000
Si       0.41923944       3.33764181      -0.82871911       0.00000000
Si      -2.83574691       1.36661697      -1.47194911       0.00000000
Si      -0.43950420       3.30796143       1.29232188       0.00000000
Si      -2.78479179      -2.30856083      -0.07623873       0.00000000
Si      -0.27901512       0.36556389       3.64735818       0.00000000
