10
Lattice="16.28999089631971 0.0 0.0 0.0 16.28999089631971 0.0 0.0 0.0 34.279985188174585" Properties=species:S:1:pos:R:3:initial_magmoms:R:1 pbc="T T T"
Si       0.19349262       2.11494699      -0.86255347       0.00000000
Si      -2.18009070      -0.21856293       0.73770569       0.00000000
Si       1.96929810      -0.78957630       0.96436508       0.00000000
Si      -0.49329378      -1.41228110      -1.87209960       0.00000000
Si       1.72620243      -1.22089640      -2.83313952       0.00000000
Si      -0.33285357      -3.49479863      -0.61930256       0.00000000
Si       1.45052676      -3.07788866       1.07392398       0.00000000
Si      -1.76085126       3.11907888      -0.09101341       0.00000000
Si      -0.91028520       1.88613765      -2.95239965       0.00000000
Si       1.93215690       3.07208223       0.49294646       0.00000000
