10
Lattice="16.28999089631971 0.0 0.0 0.0 16.28999089631971 0.0 0.0 0.0 34.279985188174585" Properties=species:S:1:pos:R:3:initial_magmoms:R:1 pbc="T T T"
Si      -0.47573316      -2.29639153      -0.25343207       0.00000000
Si      -0.96615990       0.81083475      -2.01840666       0.00000000
Si      -0.65329416       0.89884962       2.17455208       0.00000000
Si       2.42085690      -0.33871797       0.05855025       0.00000000
Si       1.31131242       2.09852667       2.59664177       0.00000000
Si      -0.35587134      -2.41903584      -2.70482946       0.00000000
Si       0.27901512      -0.36556389      -3.64735818       0.00000000
Si      -0.16048908       2.94239754      -2.35503630       0.00000000
Si       3.06625041       0.59811993       2.15833763       0.00000000
Si      -2.62374885      -2.71004417       0.56609999       0.00000000
