10
Lattice="16.28999089631971 0.0 0.0 0.0 16.28999089631971 0.0 0.0 0.0 34.279985188174585" Properties=species:S:1:pos:R:3:initial_magmoms:R:1 pbc="T T T"
Si       1.96460658       1.19967705       0.42208969       0.00000000
Si      -1.38129426       1.96423191       0.08347181       0.00000000
Si      -0.34086825      -1.79460251       1.57605748       0.00000000
Si       0.65329416      -0.89884962      -2.17455208       0.00000000
Si       3.71954457      -0.30072969      -0.01621444       0.00000000
Si       1.94803965       2.98568007      -1.12171030       0.00000000
Si       1.86057864       1.86460227       2.67435454       0.00000000
Si       1.50170994      -3.18171719       1.31134729       0.00000000
Si      -2.17191312      -2.98966297       0.72985557       0.00000000
Si      -0.34930647       3.56527827      -1.34089665       0.00000000
