10
Lattice="16.28999089631971 0.0 0.0 0.0 16.28999089631971 0.0 0.0 0.0 34.279985188174585" Properties=species:S:1:pos:R:3:initial_magmoms:R:1 pbc="T T T"
Si      -1.84257819       1.38711468       0.26471019       0.00000000
Si       0.06245586      -1.14354564      -2.05470918       0.00000000
Si       0.24050556      -1.68828324       1.62929433       0.00000000
Si       2.00033055       1.22405992       0.32973936       0.00000000
Si      -1.58382783       1.34482095       2.67408030       0.00000000
Si       3.54776652      -0.48609753       0.20924515       0.00000000
Si       2.43748899      -2.42915244       1.07690634       0.00000000
Si       1.95875847      -0.33854271      -3.09987223       0.00000000
Si      -0.09436797      -0.53403900       3.67896435       0.00000000
Si      -3.67362306       0.19205421      -0.58149171       0.00000000
