10
Lattice="16.28999089631971 0.0 0.0 0.0 16.28999089631971 0.0 0.0 0.0 34.279985188174585" Properties=species:S:1:pos:R:3:initial_magmoms:R:1 pbc="T T T"
Si       1.35684297      -1.35762489      -1.35954497       0.00000000
Si      -1.35780408       1.35848826      -1.35975065       0.00000000
Si       1.35348723       1.37158542       1.36077905       0.00000000
Si      -1.35896067      -1.35847197       1.37658213       0.00000000
Si      -2.71538010      -2.71386513      -0.00085700       0.00000000
Si       2.71256193       2.71718829      -0.00233104       0.00000000
Si      -2.71472850       2.71541268      -0.00065132       0.00000000
Si      -0.00027693      -2.71433754      -2.71782158       0.00000000
Si      -2.71485882       0.00086337      -2.71734166       0.00000000
Si       2.71492398       0.00099369      -2.71778730       0.00000000
