10
Lattice="16.28999089631971 0.0 0.0 0.0 16.28999089631971 0.0 0.0 0.0 34.279985188174585" Properties=species:S:1:pos:R:3:initial_magmoms:R:1 pbc="T T T"
Si      -0.19349262      -2.11494699       0.86255347       0.00000000
Si      -1.95434388       1.00413189       0.77154006       0.00000000
Si      -1.10377782      -0.22880934      -2.08984618       0.00000000
Si       1.73866428       0.95713524       1.35549993       0.00000000
Si      -3.23545464       0.30196773      -0.96165696       0.00000000
Si       1.71405009       2.26939248      -1.88649720       0.00000000
Si      -1.45852515       3.24781875       0.76862626       0.00000000
Si       0.29532141       1.07326665      -3.47372996       0.00000000
Si       3.42031356       1.29380067      -0.50737834       0.00000000
Si      -2.37358332      -2.33350992       1.60025916       0.00000000
