10
Lattice="16.28999089631971 0.0 0.0 0.0 16.28999089631971 0.0 0.0 0.0 34.279985188174585" Properties=species:S:1:pos:R:3:initial_magmoms:R:1 pbc="T T T"
Si      -1.34905635      -1.44915840      -1.28118088       0.00000000
Si       1.39909923       1.30207599      -1.38388378       0.00000000
Si       1.10377782       0.22880934       2.08984618       0.00000000
Si      -2.13167682       0.53077707       1.12818922       0.00000000
Si      -0.85056606       1.23294123       2.86138624       0.00000000
Si       0.41699142      -3.29841875       1.08030006       0.00000000
Si       0.91028520      -1.88613765       2.95239965       0.00000000
Si      -2.77781967       2.52416808       0.07315353       0.00000000
Si       2.81782791       2.49820182       0.20334899       0.00000000
Si      -0.02627577       2.58953985      -2.74216039       0.00000000
