10
Lattice="16.28999089631971 0.0 0.0 0.0 16.28999089631971 0.0 0.0 0.0 34.279985188174585" Properties=species:S:1:pos:R:3:initial_magmoms:R:1 pbc="T T T"
Si      -1.96460658      -1.19967705      -0.42208969       0.00000000
Si       1.75493799      -1.50040674      -0.43830414       0.00000000
Si      -0.10402794       0.66492522       2.25226485       0.00000000
Si      -0.01656693       1.78600302      -1.54380000       0.00000000
Si      -3.34590084       0.76455486      -0.33861788       0.00000000
Si      -1.31131242      -2.09852667      -2.59664177       0.00000000
Si       1.10954448      -2.43724464      -2.53809152       0.00000000
Si       1.66258998       3.22828704      -0.69187333       0.00000000
Si       3.69229140      -0.25759377       0.15851074       0.00000000
Si       1.53743391      -3.15733432       1.21899695       0.00000000
