10
Lattice="16.28999089631971 0.0 0.0 0.0 16.28999089631971 0.0 0.0 0.0 34.279985188174585" Properties=species:S:1:pos:R:3:initial_magmoms:R:1 pbc="T T T"
Si      -1.89583020      -0.49606308      -1.25221428       0.00000000
Si       1.36454814      -1.71173691      -0.79982106       0.00000000
Si       0.92284479       2.05091100      -0.66040428       0.00000000
Si       0.30947742      -0.22214673       2.36830266       0.00000000
Si      -2.63551023       1.75668102      -1.16788547       0.00000000
Si       3.35243313      -0.59600223      -0.21850075       0.00000000
Si      -2.80489365      -1.95408324       0.34314284       0.00000000
Si      -0.75085497       2.85871581      -2.11932699       0.00000000
Si       3.01654962       1.41727887      -1.47469151       0.00000000
Si       1.94773014       1.47061233       2.76104867       0.00000000
