10
Lattice="16.28999089631971 0.0 0.0 0.0 16.28999089631971 0.0 0.0 0.0 34.279985188174585" Properties=species:S:1:pos:R:3:initial_magmoms:R:1 pbc="T T T"
Si      -0.51365628      -1.71027081       1.54431420       0.00000000
Si       1.65030732      -1.30359096      -1.20483931       0.00000000
Si      -1.39124745       1.45575585      -1.35505429       0.00000000
Si      -2.19753729      -2.74774833       0.21418147       0.00000000
Si      -2.42250219      -0.20318517      -2.70081870       0.00000000
Si       0.33585093       2.58882309      -2.64288550       0.00000000
Si       1.39963680      -3.26886543       1.49968163       0.00000000
Si       0.37395324      -2.81127933      -2.68155334       0.00000000
Si       0.39317544       3.36380355       2.13622703       0.00000000
Si      -3.15118647       2.47813254       0.09399577       0.00000000
