10
Lattice="16.28999089631971 0.0 0.0 0.0 16.28999089631971 0.0 0.0 0.0 34.279985188174585" Properties=species:S:1:pos:R:3:initial_magmoms:R:1 pbc="T T T"
Si       2.09370483      -0.63363213      -0.81428722       0.00000000
Si      -0.92284479      -2.05091100       0.66040428       0.00000000
Si      -1.67369976       0.80780481      -1.45892270       0.00000000
Si       0.62196849       1.23253398       1.97490533       0.00000000
Si      -3.55835502      -0.29422998      -0.50748118       0.00000000
Si       1.02488535      -0.58029867       3.42145295       0.00000000
Si       2.42958834      -2.64691323       0.44190354       0.00000000
Si       3.49834266       1.18273545      -0.27955344       0.00000000
Si       0.44170335      -3.76264791      -0.13941678       0.00000000
Si      -0.61336737      -2.27305773       3.02870694       0.00000000
