10
Lattice="16.28999089631971 0.0 0.0 0.0 16.28999089631971 0.0 0.0 0.0 34.279985188174585" Properties=species:S:1:pos:R:3:initial_magmoms:R:1 pbc="T T T"
Si      -1.38419388       1.30460871       1.41512657       0.00000000
Si       1.33519356      -1.39784490       1.38398662       0.00000000
Si       0.98761383       1.62930366      -1.43437963       0.00000000
Si      -1.37163429      -1.52658477      -1.41861083       0.00000000
Si      -0.88340670       3.28535810      -1.35419870       0.00000000
Si       2.61296487       2.64068623       0.03656991       0.00000000
Si      -2.67024703       2.67942874       0.09045465       0.00000000
Si       2.68381008      -0.04043178       2.75468630       0.00000000
Si      -0.03150486       2.67835034       2.76023966       0.00000000
Si       2.73781143      -2.72719035      -0.03521585       0.00000000
