10
Lattice="16.28999089631971 0.0 0.0 0.0 16.28999089631971 0.0 0.0 0.0 34.279985188174585" Properties=species:S:1:pos:R:3:initial_magmoms:R:1 pbc="T T T"
Si       1.31693247       1.22051196      -1.48284127       0.00000000
Si       1.29355632      -1.37132478       1.43638703       0.00000000
Si      -1.08556560      -1.58110740      -1.43227827       0.00000000
Si      -1.40261787       1.32934545       1.41920246       0.00000000
Si       2.26489644      -0.73692702      -2.60612846       0.00000000
Si       2.73121398       2.64627792      -0.14227230       0.00000000
Si       2.61643464      -2.81124675       0.15572720       0.00000000
Si       2.66281227      -0.02440242       2.79315875       0.00000000
Si      -2.73781143       2.72719035       0.03521585       0.00000000
Si      -0.05400135       2.68675857       2.78990215       0.00000000
