10
Lattice="16.28999089631971 0.0 0.0 0.0 16.28999089631971 0.0 0.0 0.0 34.279985188174585" Properties=species:S:1:pos:R:3:initial_magmoms:R:1 pbc="T T T"
Si       1.35643572       1.35651717      -1.35687113       0.00000000
Si       1.35707103      -1.35721764       1.35711109       0.00000000
Si      -1.35798327       1.35764118       1.35748817       0.00000000
Si      -1.35845568      -1.35775521      -1.35769385       0.00000000
Si       2.71358820      -0.00052128       2.71507918       0.00000000
Si       2.71448415       2.71479366      -0.00006856       0.00000000
Si       2.71453302      -2.71479366      -0.00006856       0.00000000
Si      -0.00100998      -2.71523349       2.71425646       0.00000000
Si      -2.71572219      -0.00066789       2.71398222       0.00000000
Si       0.00030951       2.71251306      -2.71747878       0.00000000
