10
Lattice="16.28999089631971 0.0 0.0 0.0 16.28999089631971 0.0 0.0 0.0 34.279985188174585" Properties=species:S:1:pos:R:3:initial_magmoms:R:1 pbc="T T T"
Si       1.43387838      -1.22531751       1.45404809       0.00000000
Si       1.81493406       0.84330072      -1.29875422       0.00000000
Si      -1.27889532       1.49089338       1.41131806       0.00000000
Si      -0.76250232      -1.97884404      -1.30163374       0.00000000
Si      -2.54934265      -2.58477340       0.14301961       0.00000000
Si       0.60730749       0.43776117      -3.65752704       0.00000000
Si       2.73386925      -2.62351590       0.08913487       0.00000000
Si       0.08939952      -2.58585179       2.81280462       0.00000000
Si       3.59427447      -0.77010975      -1.09693203       0.00000000
Si      -2.62899586       0.13007565       2.80642854       0.00000000
