10
Lattice="16.28999089631971 0.0 0.0 0.0 16.28999089631971 0.0 0.0 0.0 34.279985188174585" Properties=species:S:1:pos:R:3:initial_magmoms:R:1 pbc="T T T"
Si       0.99942408      -0.99230535       1.81522907       0.00000000
Si      -0.54348327       2.02252130       1.13761622       0.00000000
Si       1.93864032       0.79975755      -1.16192075       0.00000000
Si      -2.38361796      -0.55944747       0.00449068       0.00000000
Si       2.96386776      -1.06497504       0.02190492       0.00000000
Si      -2.69338860       1.76743242       0.11884878       0.00000000
Si       2.86485714       0.32081526       2.47025139       0.00000000
Si       1.83120777       0.02971296      -3.46255468       0.00000000
Si       3.72202065       1.21666752       0.53130579       0.00000000
Si      -0.38024118      -1.68803496       3.57379329       0.00000000
