10
Lattice="16.28999089631971 0.0 0.0 0.0 16.28999089631971 0.0 0.0 0.0 34.279985188174585" Properties=species:S:1:pos:R:3:initial_magmoms:R:1 pbc="T T T"
Si      -1.36638891      -1.34009033       1.39337934       0.00000000
Si       1.34941473       1.37241621       1.39351646       0.00000000
Si      -1.31160564       1.40919903      -1.47192168       0.00000000
Si       1.37578824      -1.48757674      -1.53428044       0.00000000
Si       2.70514998      -2.68677874       0.03821535       0.00000000
Si      -2.70663237      -2.71010023       0.00998919       0.00000000
Si       2.70438435       2.73458601       0.01912481       0.00000000
Si       2.40290532       0.12453705      -3.00520598       0.00000000
Si      -2.72236851       2.72639214       0.02195291       0.00000000
Si      -0.00827532      -2.69977087       2.75388415       0.00000000
