10
Lattice="16.28999089631971 0.0 0.0 0.0 16.28999089631971 0.0 0.0 0.0 34.279985188174585" Properties=species:S:1:pos:R:3:initial_magmoms:R:1 pbc="T T T"
Si      -1.35612621      -1.35687229       1.35601413       0.00000000
Si       1.35817875       1.35739683       1.35676829       0.00000000
Si      -1.35785295       1.35711990      -1.35748817       0.00000000
Si       1.35736425      -1.35803866      -1.35786525       0.00000000
Si       2.71415835       2.71451673       0.00010284       0.00000000
Si      -2.71292031      -0.00306252       2.71651894       0.00000000
Si       2.71531494      -0.00089595      -2.71425646       0.00000000
Si      -0.00172674       2.71513575      -2.71473638       0.00000000
Si      -2.71524978       2.71479366      -0.00020568       0.00000000
Si       2.71477737      -2.71540112       0.00013712       0.00000000
