10
Lattice="16.28999089631971 0.0 0.0 0.0 16.28999089631971 0.0 0.0 0.0 34.279985188174585" Properties=species:S:1:pos:R:3:initial_magmoms:R:1 pbc="T T T"
Si       1.35612621       1.35687229      -1.35601413       0.00000000
Si      -1.35679410       1.35380977       1.36050481       0.00000000
Si      -1.35910728      -1.35862168      -1.35597985       0.00000000
Si       1.35527913      -1.36010988       1.36060765       0.00000000
Si       0.00511506      -2.71099224       2.71010858       0.00000000
Si       2.71349046      -0.00116636      -2.71387938       0.00000000
Si      -0.00172674       2.71399219      -2.71350230       0.00000000
Si       2.71430496       2.71426912       0.00075416       0.00000000
Si       2.71249677      -2.71617246      -0.00082272       0.00000000
Si      -0.00167787      -2.71643310      -2.71357086       0.00000000
