10
Lattice="16.28999089631971 0.0 0.0 0.0 16.28999089631971 0.0 0.0 0.0 34.279985188174585" Properties=species:S:1:pos:R:3:initial_magmoms:R:1 pbc="T T T"
Si      -1.35557235       1.35435060      -1.35772813       0.00000000
Si      -1.35612621      -1.35801585       1.35724821       0.00000000
Si       1.35892809       1.35687555       1.35697397       0.00000000
Si       1.35896067      -1.35850455      -1.36136181       0.00000000
Si       0.01312974       2.71849149      -2.70257727       0.00000000
Si      -2.71153566       2.71454931       0.00027424       0.00000000
Si      -2.71352304      -0.00034209       2.71453070       0.00000000
Si       0.00192222       2.71379997       2.71477066       0.00000000
Si       0.00172674      -2.71513575       2.71473638       0.00000000
Si      -2.71538010      -2.71503801       0.00065132       0.00000000
