10
Lattice="16.28999089631971 0.0 0.0 0.0 16.28999089631971 0.0 0.0 0.0 34.279985188174585" Properties=species:S:1:pos:R:3:initial_magmoms:R:1 pbc="T T T"
Si      -1.35413883      -1.35661491      -1.37418253       0.00000000
Si      -1.29253005       1.44436914       1.34593581       0.00000000
Si       1.36212093       1.36098063      -1.37277705       0.00000000
Si       1.19997027      -1.40836824       1.55823188       0.00000000
Si       2.72018565      -2.70494147       0.02529864       0.00000000
Si      -2.69162928       0.14229315       2.72981959       0.00000000
Si      -2.72526813      -2.70292639      -0.01018116       0.00000000
Si       2.71101438       2.71824714       0.01741424       0.00000000
Si       0.00265527      -2.71042468      -2.73468735       0.00000000
Si      -2.71454931       0.00262269      -2.73266483       0.00000000
