10
Lattice="16.28999089631971 0.0 0.0 0.0 16.28999089631971 0.0 0.0 0.0 34.279985188174585" Properties=species:S:1:pos:R:3:initial_magmoms:R:1 pbc="T T T"
Si      -1.98788499      -1.11573468      -0.58132031       0.00000000
Si       1.51824429      -1.76787225      -0.35181568       0.00000000
Si       0.39794841       0.66363831       2.22700048       0.00000000
Si      -0.33588351       2.01328110      -1.25619076       0.00000000
Si       2.53175922       1.52710605       1.51401067       0.00000000
Si      -3.35243313       0.59600223       0.21850075       0.00000000
Si       0.11168424      -3.59003907       0.24181115       0.00000000
Si      -2.42958834       2.64691323      -0.44190354       0.00000000
Si      -2.08756350      -3.03580440       0.74843533       0.00000000
Si       0.15680754      -1.23100272       3.60783334       0.00000000
