10
Lattice="16.28999089631971 0.0 0.0 0.0 16.28999089631971 0.0 0.0 0.0 34.279985188174585" Properties=species:S:1:pos:R:3:initial_magmoms:R:1 pbc="T T T"
Si      -1.86816978      -0.69737490       1.35265469       0.00000000
Si      -1.61749926       1.26789957      -1.35186625       0.00000000
Si       1.30440546      -1.67580117      -1.30246877       0.00000000
Si       1.23385347      -0.70478685       2.46082439       0.00000000
Si      -0.87273675      -0.65523267       3.45545872       0.00000000
Si       1.07074170       2.70213633       2.24797984       0.00000000
Si       2.51289540      -0.19183104      -2.77938847       0.00000000
Si       1.32901965      -2.98805841       1.93952837       0.00000000
Si      -0.18207333       2.52653013      -2.83601904       0.00000000
Si      -0.40964463      -3.94519365       0.58402843       0.00000000
