10
Lattice="16.28999089631971 0.0 0.0 0.0 16.28999089631971 0.0 0.0 0.0 34.279985188174585" Properties=species:S:1:pos:R:3:initial_magmoms:R:1 pbc="T T T"
Si       0.09254349      -1.69104861       1.55956880       0.00000000
Si       1.98089658       0.24596271      -1.19698919       0.00000000
Si      -1.30878747      -0.36536841      -1.90860780       0.00000000
Si      -1.03338873       1.61207469       1.37147441       0.00000000
Si      -2.70498708       0.21084147      -0.22028331       0.00000000
Si       0.29237292      -3.47641632       0.11476945       0.00000000
Si       2.14684281       2.59949304      -1.14577487       0.00000000
Si      -2.11367637      -1.70028504       2.31688265       0.00000000
Si      -2.29029255       1.80281430      -2.14548263       0.00000000
Si       3.70108800      -0.33557400       0.25833411       0.00000000
