10
Lattice="16.28999089631971 0.0 0.0 0.0 16.28999089631971 0.0 0.0 0.0 34.279985188174585" Properties=species:S:1:pos:R:3:initial_magmoms:R:1 pbc="T T T"
Si       0.11691333      -2.00085183      -1.20610767       0.00000000
Si       1.47657447       1.41371136      -1.14025578       0.00000000
Si       1.10617245      -0.36401634       2.21445400       0.00000000
Si      -1.92437028       1.03542498      -1.23627408       0.00000000
Si      -1.76386491       1.62686601       2.50065776       0.00000000
Si      -2.01689748      -2.86431957      -0.49311786       0.00000000
Si       0.51740298      -1.12296744      -3.40503283       0.00000000
Si      -1.34609157       0.30169080      -3.44157532       0.00000000
Si       3.46913469       1.46572533       0.03006356       0.00000000
Si       0.69274854       3.57422148      -1.32039721       0.00000000
