10
Lattice="16.28999089631971 0.0 0.0 0.0 16.28999089631971 0.0 0.0 0.0 34.279985188174585" Properties=species:S:1:pos:R:3:initial_magmoms:R:1 pbc="T T T"
Si      -1.34188875      -1.35736425       1.37343180       0.00000000
Si       1.33789770      -1.40475186      -1.34815715       0.00000000
Si       1.36889757       1.35741312       1.37257480       0.00000000
Si      -1.27348704       1.31331609      -1.56199925       0.00000000
Si       0.63102573       2.06285157      -3.00084900       0.00000000
Si       2.44828926       0.19940589      -2.80675561       0.00000000
Si      -2.68553682       2.70349749      -0.01448330       0.00000000
Si      -2.71114470      -2.70428661       0.01666008       0.00000000
Si      -2.70257616      -0.00219915       2.73078285       0.00000000
Si       0.01282023       2.71382686       2.72941165       0.00000000
