10
Lattice="16.28999089631971 0.0 0.0 0.0 16.28999089631971 0.0 0.0 0.0 34.279985188174585" Properties=species:S:1:pos:R:3:initial_magmoms:R:1 pbc="T T T"
Si      -1.35651717      -1.35669636      -1.35796809       0.00000000
Si       1.35843939       1.35809730      -1.35772813       0.00000000
Si      -1.35607734       1.35943308       1.35916789       0.00000000
Si       1.35967743      -1.35752715       1.36012773       0.00000000
Si      -2.71358820       0.00052128      -2.71507918       0.00000000
Si       2.71430496      -2.71471221       0.00020568       0.00000000
Si      -2.71340901       2.71578735      -0.00034280       0.00000000
Si      -2.71459818      -2.71471221      -0.00082272       0.00000000
Si       0.00768888       2.72075580       2.70853170       0.00000000
Si       0.00094482      -2.71427238      -2.71514774       0.00000000
