10
Lattice="16.28999089631971 0.0 0.0 0.0 16.28999089631971 0.0 0.0 0.0 34.279985188174585" Properties=species:S:1:pos:R:3:initial_magmoms:R:1 pbc="T T T"
Si      -1.37534841       1.32673905      -1.38350670       0.00000000
Si       1.34416935      -1.40942709      -1.35073501       0.00000000
Si      -1.75576878      -0.92178594       1.34106805       0.00000000
Si       1.61909568       1.23621552       1.34182221       0.00000000
Si       0.13124853       2.46343896       2.62032925       0.00000000
Si      -0.67707756      -1.12158279       3.46358308       0.00000000
Si      -2.85663069       2.54430252      -0.02766396       0.00000000
Si      -0.02518434       2.67762142      -2.73300763       0.00000000
Si       2.68739388      -0.03453480      -2.73287051       0.00000000
Si      -2.74339890      -2.69900865       0.04069037       0.00000000
