10
Lattice="16.28999089631971 0.0 0.0 0.0 16.28999089631971 0.0 0.0 0.0 34.279985188174585" Properties=species:S:1:pos:R:3:initial_magmoms:R:1 pbc="T T T"
Si       1.32936174      -1.19920200       1.57249579       0.00000000
Si       1.02711708       1.61211379      -1.47092555       0.00000000
Si      -0.76585806      -1.86316942      -1.44209606       0.00000000
Si      -1.37578824       1.48757674       1.53428044       0.00000000
Si       2.60107317      -2.61736384       0.23696053       0.00000000
Si      -0.96951564       2.80618708      -2.25751452       0.00000000
Si      -2.67037083      -2.61270490      -0.00324632       0.00000000
Si      -0.02798622      -2.56860787       2.93132774       0.00000000
Si       2.61006525       2.90646832      -0.02439365       0.00000000
Si      -2.68739388       2.89677577       0.06235876       0.00000000
