10
Lattice="16.28999089631971 0.0 0.0 0.0 16.28999089631971 0.0 0.0 0.0 34.279985188174585" Properties=species:S:1:pos:R:3:initial_magmoms:R:1 pbc="T T T"
Si      -1.99182717       0.84419178       1.01911025       0.00000000
Si      -0.24731478      -2.41000354       0.11494085       0.00000000
Si       0.05939334       0.87993204      -2.27612373       0.00000000
Si       2.04118587       0.56739862       1.23911932       0.00000000
Si       3.62794005      -0.76065112       0.04120457       0.00000000
Si      -1.13699313       2.26285530       2.70949154       0.00000000
Si      -0.45041850      -3.08545210      -2.13221627       0.00000000
Si       1.99286973      -0.13278793      -3.23455837       0.00000000
Si      -1.98164592      -2.92160728       1.59758532       0.00000000
Si      -3.13895268      -0.98148457       2.09608515       0.00000000
