10
Lattice="16.28999089631971 0.0 0.0 0.0 16.28999089631971 0.0 0.0 0.0 34.279985188174585" Properties=species:S:1:pos:R:3:initial_magmoms:R:1 pbc="T T T"
Si       0.39717693      -0.88968879       2.09751569       0.00000000
Si      -0.37515870      -2.14812387      -0.96395372       0.00000000
Si       2.31352928       0.71074573      -0.31465616       0.00000000
Si      -1.72374264       1.63124476      -0.67123677       0.00000000
Si       1.42125267       1.86883441      -2.19769108       0.00000000
Si      -0.97707420      -1.09111464      -3.10384871       0.00000000
Si       1.84481711      -3.00142665      -0.64545820       0.00000000
Si       1.62847939       0.67661167       3.23794322       0.00000000
Si      -2.55243123       0.67667683      -2.75165595       0.00000000
Si       3.43371113      -1.27336716      -1.16699419       0.00000000
