10
Lattice="16.28999089631971 0.0 0.0 0.0 16.28999089631971 0.0 0.0 0.0 34.279985188174585" Properties=species:S:1:pos:R:3:initial_magmoms:R:1 pbc="T T T"
Si       0.64614285      -1.99339101       1.05503569       0.00000000
Si      -1.37311668      -1.37916027      -1.35224333       0.00000000
Si      -1.17410175       1.47357711       1.49981875       0.00000000
Si       1.39738878       1.41004611      -1.39591606       0.00000000
Si       1.92725361      -1.29122685       2.78823271       0.00000000
Si       2.77781967      -2.52416808      -0.07315353       0.00000000
Si       2.42307234       0.95246001       2.78531891       0.00000000
Si       0.50977926       2.51105463       2.82995148       0.00000000
Si       0.03909600      -2.66468562      -2.79951083       0.00000000
Si      -2.67156163       0.04546539      -2.79340899       0.00000000
