10
Lattice="16.28999089631971 0.0 0.0 0.0 16.28999089631971 0.0 0.0 0.0 34.279985188174585" Properties=species:S:1:pos:R:3:initial_magmoms:R:1 pbc="T T T"
Si       1.35488817      -1.35350352      -1.36293869       0.00000000
Si      -1.36169739       1.36065483      -1.36163605       0.00000000
Si       1.37898108       1.34126973       1.38066146       0.00000000
Si      -1.36506942      -1.35420399       1.38868298       0.00000000
Si       2.71083089      -2.70860346       0.00116552       0.00000000
Si      -2.71396287      -2.71147050      -0.00150832       0.00000000
Si      -0.00314397      -2.71148679      -2.71932990       0.00000000
Si       2.70948798       2.72170062      -0.00281096       0.00000000
Si       2.71254976       0.00360009      -2.71912422       0.00000000
Si      -2.71632492       2.71783989      -0.00171400       0.00000000
