10
Lattice="16.28999089631971 0.0 0.0 0.0 16.28999089631971 0.0 0.0 0.0 34.279985188174585" Properties=species:S:1:pos:R:3:initial_magmoms:R:1 pbc="T T T"
Si      -1.98917190      -1.06129350       0.57717243       0.00000000
Si       1.11171105       0.37497951      -2.08432710       0.00000000
Si      -0.96847308       2.19004389      -0.33032212       0.00000000
Si       1.52240543      -0.51065892       1.81269235       0.00000000
Si       2.60496715       1.81237653      -0.84973275       0.00000000
Si       2.46345266       1.63569519       1.71036654       0.00000000
Si       1.06746741       3.24791649       0.13862834       0.00000000
Si      -2.24525070       0.16307919       2.65563766       0.00000000
Si      -1.88775036       2.35711413       1.77117926       0.00000000
Si       3.11968880      -1.95214473       0.73952253       0.00000000
