10
Lattice="16.28999089631971 0.0 0.0 0.0 16.28999089631971 0.0 0.0 0.0 34.279985188174585" Properties=species:S:1:pos:R:3:initial_magmoms:R:1 pbc="T T T"
Si      -2.23231644       0.62783289       0.35490088       0.00000000
Si       0.35750034       2.19403494      -0.88445839       0.00000000
Si       0.92611908      -0.66341025       2.11799007       0.00000000
Si       0.25607880      -1.22437269      -2.07846522       0.00000000
Si      -1.90741239       2.63357172      -0.77836178       0.00000000
Si       2.24525070      -0.16307919      -2.65563766       0.00000000
Si      -0.73951713      -2.23220241       2.80280172       0.00000000
Si       3.03642342      -1.50618969       1.38237546       0.00000000
Si       1.27677762       2.02696470      -2.98595978       0.00000000
Si      -3.71820879      -0.64319436      -0.87722531       0.00000000
