10
Lattice="16.28999089631971 0.0 0.0 0.0 16.28999089631971 0.0 0.0 0.0 34.279985188174585" Properties=species:S:1:pos:R:3:initial_magmoms:R:1 pbc="T T T"
Si      -1.40620167       1.32574536      -1.33526787       0.00000000
Si       1.34400645       1.37070576       1.38375008       0.00000000
Si      -1.37350764      -1.34553771       1.38525840       0.00000000
Si       1.37520180      -1.25776719      -1.68102285       0.00000000
Si      -2.73111624      -0.11886813      -2.64634126       0.00000000
Si       2.69764260      -2.69381214      -0.02584370       0.00000000
Si      -2.71942002      -2.69648370       0.04071779       0.00000000
Si       2.69646893       2.72345994       0.02438680       0.00000000
Si       2.69795967       0.01462842       2.74281514       0.00000000
Si      -0.01708821      -2.69972541       2.74326078       0.00000000
