10
Lattice="16.28999089631971 0.0 0.0 0.0 16.28999089631971 0.0 0.0 0.0 34.279985188174585" Properties=species:S:1:pos:R:3:initial_magmoms:R:1 pbc="T T T"
Si       0.25363530       0.16630461       2.36024686       0.00000000
Si      -2.22254244       0.95679315      -0.01247792       0.00000000
Si       1.32097239       1.97149725      -0.52746643       0.00000000
Si      -0.19142379      -1.89967464      -1.78982759       0.00000000
Si       2.72214045       0.65655216      -1.85814764       0.00000000
Si      -1.43563770       3.02273982       0.93481572       0.00000000
Si      -3.03604875      -0.44502651       1.64862825       0.00000000
Si       0.41958153       2.51983494       2.41146119       0.00000000
Si       1.29311649      -0.72176103      -3.30887742       0.00000000
Si       0.07363080       3.31459146      -2.13423879       0.00000000
