10
Lattice="16.28999089631971 0.0 0.0 0.0 16.28999089631971 0.0 0.0 0.0 34.279985188174585" Properties=species:S:1:pos:R:3:initial_magmoms:R:1 pbc="T T T"
Si      -1.72019142       0.58153671      -1.45532330       0.00000000
Si      -0.07338645      -2.05038972       1.14395803       0.00000000
Si       1.77170040      -0.38936358      -1.51407923       0.00000000
Si       0.37732527       2.01399786       1.21861987       0.00000000
Si      -1.55424519       2.93506704      -1.40410898       0.00000000
Si      -1.75016502      -1.58835645       2.76989291       0.00000000
Si       1.92681983       3.11896485      -0.16094462       0.00000000
Si      -3.70108800       0.33557400      -0.25833411       0.00000000
Si       1.81141542      -2.68957674      -1.88221220       0.00000000
Si      -1.14380235      -3.58037910      -0.24966127       0.00000000
