10
Lattice="16.28999089631971 0.0 0.0 0.0 16.28999089631971 0.0 0.0 0.0 34.279985188174585" Properties=species:S:1:pos:R:3:initial_magmoms:R:1 pbc="T T T"
Si       1.53749974      -1.43553996      -0.98836109       0.00000000
Si      -0.03971502       2.30021316       0.36813297       0.00000000
Si      -2.03594049      -1.05787260      -0.46895046       0.00000000
Si       1.39598525      -1.61222130       1.57173820       0.00000000
Si       0.28114652      -0.31508118       3.31652186       0.00000000
Si       1.94146568       2.29167720       1.58027392       0.00000000
Si      -1.06746741      -3.24791649      -0.13862834       0.00000000
Si      -2.95521777      -0.89080236       1.63255093       0.00000000
Si      -1.88480187       0.63918702       3.02617022       0.00000000
Si       0.04424364      -2.87293698      -2.22295544       0.00000000
