10
Lattice="16.28999089631971 0.0 0.0 0.0 16.28999089631971 0.0 0.0 0.0 34.279985188174585" Properties=species:S:1:pos:R:3:initial_magmoms:R:1 pbc="T T T"
Si       1.04646960      -0.67297248      -1.97178585       0.00000000
Si      -0.90078813      -2.00037942       0.84822443       0.00000000
Si      -0.50850864       2.30545854      -0.31026832       0.00000000
Si       1.22249934      -3.09176055       0.88987463       0.00000000
Si      -2.87147088       0.47571687       1.87412212       0.00000000
Si      -1.36607940      -0.95363289       3.09431887       0.00000000
Si       0.49761063       1.04645331      -3.37418083       0.00000000
Si      -2.03035302      -2.62777248      -1.39361930       0.00000000
Si      -2.50106886       2.25344457      -1.48058767       0.00000000
Si       3.40507331      -0.33404274      -1.71358886       0.00000000
