10
Lattice="16.28999089631971 0.0 0.0 0.0 16.28999089631971 0.0 0.0 0.0 34.279985188174585" Properties=species:S:1:pos:R:3:initial_magmoms:R:1 pbc="T T T"
Si       1.35427401      -1.35451350       1.36002489       0.00000000
Si      -1.35777150      -1.35749457      -1.35628837       0.00000000
Si       1.35747850       1.35731538      -1.35680257       0.00000000
Si      -1.36078515       1.35863487       1.36016201       0.00000000
Si       2.71475849      -0.00024435      -2.71405078       0.00000000
Si      -0.00029322       2.71474479      -2.71415362       0.00000000
Si       2.71440989      -2.71458189       0.00126836       0.00000000
Si      -2.71539639      -0.00001629      -2.71377654       0.00000000
Si       0.00004887      -2.71529865      -2.71463354       0.00000000
Si       2.71443432       2.71559187       0.00010284       0.00000000
