10
Lattice="16.28999089631971 0.0 0.0 0.0 16.28999089631971 0.0 0.0 0.0 34.279985188174585" Properties=species:S:1:pos:R:3:initial_magmoms:R:1 pbc="T T T"
Si       1.23130246       1.56630046       1.14042753       0.00000000
Si      -0.39717693       0.88968879      -2.09751569       0.00000000
Si      -1.64797200      -1.19869965       1.11269158       0.00000000
Si      -0.77233563      -1.25843508      -3.06146941       0.00000000
Si       1.91635234       1.60043453      -2.41217185       0.00000000
Si      -0.20536067      -2.51439408       2.44598149       0.00000000
Si       2.51735560       0.19148043       2.46509945       0.00000000
Si       2.52991519      -2.63971305      -0.36863795       0.00000000
Si       3.01814278       2.17222982      -0.30422582       0.00000000
Si       1.44764017      -2.11173786      -2.74297389       0.00000000
