10
Lattice="16.28999089631971 0.0 0.0 0.0 16.28999089631971 0.0 0.0 0.0 34.279985188174585" Properties=species:S:1:pos:R:3:initial_magmoms:R:1 pbc="T T T"
Si       1.36215188       1.34121234      -1.34226785       0.00000000
Si      -1.35775302       1.35567366       1.35800237       0.00000000
Si       1.35576620      -1.35788553       1.35803665       0.00000000
Si      -1.36056439      -1.36466217      -1.36138581       0.00000000
Si       0.07609873       2.71603237      -2.66693977       0.00000000
Si      -2.71538892       2.71273690      -0.00281096       0.00000000
Si      -0.00083731       2.71407105       2.71480494       0.00000000
Si       2.71459655      -0.00110772       2.71507918       0.00000000
Si       2.71484090       2.71495397       0.00284524       0.00000000
Si      -2.71563327      -0.00127062       2.71470210       0.00000000
