10
Lattice="16.28999089631971 0.0 0.0 0.0 16.28999089631971 0.0 0.0 0.0 34.279985188174585" Properties=species:S:1:pos:R:3:initial_magmoms:R:1 pbc="T T T"
Si       1.35545597      -1.35273789      -1.35861941       0.00000000
Si      -1.35132205      -1.36003581       1.36670949       0.00000000
Si      -1.36052590       1.36051541      -1.35786525       0.00000000
Si       1.36331264       1.36181209       1.38491218       0.00000000
Si      -2.46902782       0.10729704       2.84116104       0.00000000
Si      -0.00149985      -2.71101438      -2.71552482       0.00000000
Si       2.71315417       0.00397393      -2.71600474       0.00000000
Si      -2.71976350      -2.70969489       0.00143976       0.00000000
Si       2.71566283      -2.71423980       0.00270812       0.00000000
Si      -2.71671727       0.00404238      -2.71518202       0.00000000
