10
Lattice="16.28999089631971 0.0 0.0 0.0 16.28999089631971 0.0 0.0 0.0 34.279985188174585" Properties=species:S:1:pos:R:3:initial_magmoms:R:1 pbc="T T T"
Si      -1.35545597       1.35273789       1.35861941       0.00000000
Si       1.35769819       1.35671182      -1.35738533       0.00000000
Si      -1.35695582      -1.35827649      -1.35690541       0.00000000
Si       1.36020685      -1.36150191       1.36132753       0.00000000
Si       2.71450858       2.71331031       0.00058276       0.00000000
Si       0.00006842       2.71449459      -2.71415362       0.00000000
Si      -2.71472754      -0.00084708      -2.71425646       0.00000000
Si      -2.71598187       2.71325330       0.00075416       0.00000000
Si       2.71550228      -0.00068418      -2.71387938       0.00000000
Si       0.00032417      -2.71583622      -2.71415362       0.00000000
