10
Lattice="16.28999089631971 0.0 0.0 0.0 16.28999089631971 0.0 0.0 0.0 34.279985188174585" Properties=species:S:1:pos:R:3:initial_magmoms:R:1 pbc="T T T"
Si      -1.03125474      -1.65894102      -1.34576441       0.00000000
Si       1.39124745      -1.45575585       1.35505429       0.00000000
Si       1.72709838       1.13306724      -1.28783120       0.00000000
Si      -1.75993902       1.02237669       1.44905006       0.00000000
Si      -2.31064039      -0.19738593      -2.73149931       0.00000000
Si      -2.29584255      -2.84200227       0.29504800       0.00000000
Si       0.42596721       2.50732422      -2.74843363       0.00000000
Si      -3.15988370      -1.01061531       1.80391667       0.00000000
Si      -0.59919507       1.34860023       3.49577200       0.00000000
Si      -2.58255796       2.89321803       0.10088605       0.00000000
