10
Lattice="16.28999089631971 0.0 0.0 0.0 16.28999089631971 0.0 0.0 0.0 34.279985188174585" Properties=species:S:1:pos:R:3:initial_magmoms:R:1 pbc="T T T"
Si       1.67362483       0.92613537      -1.46598439       0.00000000
Si      -1.07030725      -1.68546114      -1.38340386       0.00000000
Si       0.82261894      -1.87084134       1.34816401       0.00000000
Si      -1.83560674       1.69643801       0.39164905       0.00000000
Si       0.28341668       2.34204655      -2.82491232       0.00000000
Si      -2.43121801      -0.37980135      -2.84311500       0.00000000
Si      -2.21944801      -3.11674941       0.14239914       0.00000000
Si      -1.07555979       3.50877545      -1.17340455       0.00000000
Si       2.58255796      -2.89321803      -0.10088605       0.00000000
Si       3.31575457       2.05771437      -0.13804558       0.00000000
