10
Lattice="10.86 0.0 0.0 0.0 10.86 0.0 0.0 0.0 10.86" Properties=species:S:1:pos:R:3:initial_magmoms:R:1 pbc="T T T"
Si      -1.27133676      -1.36906590       1.35920502       0.00000000
Si      -1.42249710       1.27039194      -1.38469344       0.00000000
Si       1.44366324       1.34593410       1.35920502       0.00000000
Si       1.44366324      -1.36906590      -1.35579498       0.00000000
Si       0.06760350       2.51937882      -2.61596766       0.00000000
Si      -2.62883676      -0.01156590       2.71670502       0.00000000
Si      -2.71913766       2.63518986      -0.04561200       0.00000000
Si      -2.62883676      -2.72656590       0.00170502       0.00000000
Si       0.08616324       2.70343410       2.71670502       0.00000000
Si       0.08616324      -2.72656590      -2.71329498       0.00000000
