10
Lattice="10.86 0.0 0.0 0.0 10.86 0.0 0.0 0.0 10.86" Properties=species:S:1:pos:R:3:initial_magmoms:R:1 pbc="T T T"
Si       1.30974858      -1.34447886      -1.30452492       0.00000000
Si      -1.40525142       1.37052114      -1.30452492       0.00000000
Si       1.30974858       1.37052114       1.41047508       0.00000000
Si      -1.29985512      -1.33664880       1.53767826       0.00000000
Si       2.56107036       0.03140712       2.75418288       0.00000000
Si       2.66724858       0.01302114      -2.66202492       0.00000000
Si      -0.04775142      -2.70197886      -2.66202492       0.00000000
Si      -0.04775142       2.72802114      -2.66202492       0.00000000
Si       2.66724858       2.72802114       0.05297508       0.00000000
Si      -2.76275142       0.01302114      -2.66202492       0.00000000
