10
Lattice="10.86 0.0 0.0 0.0 10.86 0.0 0.0 0.0 10.86" Properties=species:S:1:pos:R:3:initial_magmoms:R:1 pbc="T T T"
Si       1.35750000       1.35750000       1.35750000       0.00000000
Si       1.35750000      -1.35750000      -1.35750000       0.00000000
Si      -1.35750000      -1.35750000       1.35750000       0.00000000
Si      -1.35750000       1.35750000      -1.35750000       0.00000000
Si       2.62469910      -0.06824424       2.66768298       0.00000000
Si      -2.53120536      -2.77286208       0.07957122       0.00000000
Si      -2.76163284       0.12927744       2.56364418       0.00000000
Si       2.66220954       0.07281630      -2.67541530       0.00000000
Si      -2.52893562       0.10312656      -2.82092844       0.00000000
Si       0.00000000       2.71500000       2.71500000       0.00000000
