10
Lattice="10.86 0.0 0.0 0.0 10.86 0.0 0.0 0.0 10.86" Properties=species:S:1:pos:R:3:initial_magmoms:R:1 pbc="T T T"
Si       1.31188800       1.34245890       1.27499658       0.00000000
Si      -1.40311200      -1.37254110       1.27499658       0.00000000
Si       1.41728430      -1.36471104      -1.31280024       0.00000000
Si      -1.40311200       1.34245890      -1.44000342       0.00000000
Si      -0.04561200       2.69995890       2.63249658       0.00000000
Si       2.66938800       2.69995890      -0.08250342       0.00000000
Si      -0.13591290      -2.79828534       2.58517956       0.00000000
Si       2.74324686      -0.03490404       2.64733134       0.00000000
Si      -2.76061200      -0.01504110       2.63249658       0.00000000
Si      -0.09840246      -2.65722480      -2.75791872       0.00000000
