10
Lattice="10.86 0.0 0.0 0.0 10.86 0.0 0.0 0.0 10.86" Properties=species:S:1:pos:R:3:initial_magmoms:R:1 pbc="T T T"
Si       1.28364114       1.37736294       1.34266524       0.00000000
Si      -1.43135886      -1.33763706       1.34266524       0.00000000
Si      -1.43135886       1.37736294      -1.37233476       0.00000000
Si       2.59450830      -2.56585962      -0.16619058       0.00000000
Si       2.53496292       0.03824892      -2.74362696       0.00000000
Si       2.64114114       0.01986294       2.70016524       0.00000000
Si       2.64114114       2.73486294      -0.01483476       0.00000000
Si      -2.74324686       0.03490404      -2.64733134       0.00000000
Si      -0.07385886      -2.69513706       2.70016524       0.00000000
Si      -0.07385886       2.73486294       2.70016524       0.00000000
