10
Lattice="16.28999089631971 0.0 0.0 0.0 16.28999089631971 0.0 0.0 0.0 34.28971787722196" Properties=species:S:1:pos:R:3:initial_magmoms:R:1 pbc="T T T"
Si      -1.09675913      -0.44142642      -2.00793842       0.00000000
Si      -1.78859543      -0.88166367       1.31435991       0.00000000
Si       1.55666100      -1.84736745      -0.13318134       0.00000000
Si       0.56379527       2.37383160      -0.22902115       0.00000000
Si       0.83510359      -0.29201454      -3.33097364       0.00000000
Si       1.39675836       1.11650031       2.98776766       0.00000000
Si      -0.08721177      -3.57166395      -0.25038366       0.00000000
Si       1.28209305      -1.19578374       3.21095956       0.00000000
Si      -2.79437261       1.22929227      -2.03711899       0.00000000
Si      -0.67395218      -2.40228630       2.73083466       0.00000000
