10
Lattice="16.28999089631971 0.0 0.0 0.0 16.28999089631971 0.0 0.0 0.0 34.28971787722196" Properties=species:S:1:pos:R:3:initial_magmoms:R:1 pbc="T T T"
Si       1.35742941      -1.35595851      -1.36332565       0.00000000
Si      -1.35845568       1.35894660      -1.36387429       0.00000000
Si      -1.36115982      -1.36723119       1.35945091       0.00000000
Si       1.36938627       1.38511974       1.37124658       0.00000000
Si      -2.71104696      -2.71211730      -0.00624073       0.00000000
Si       2.71712313      -2.70936429      -0.00384045       0.00000000
Si      -2.71300176       2.71948088      -0.00305179       0.00000000
Si      -0.00003258      -2.71239423      -2.72020484       0.00000000
Si       2.71309950       2.72146826      -0.00750945       0.00000000
Si      -2.71443528       0.00209688      -2.72068490       0.00000000
