10
Lattice="16.28999089631971 0.0 0.0 0.0 16.28999089631971 0.0 0.0 0.0 34.28971787722196" Properties=species:S:1:pos:R:3:initial_magmoms:R:1 pbc="T T T"
Si       1.30904811       0.82046377       1.75830914       0.00000000
Si       0.53673921       1.37764693      -1.86344147       0.00000000
Si       0.07016103      -2.23452115      -0.82267937       0.00000000
Si      -2.20876110       0.92344915       0.40602478       0.00000000
Si      -1.39683492       0.57810115      -2.87005099       0.00000000
Si      -1.77033204      -1.74253057      -2.22039763       0.00000000
Si       0.43969968       3.45222730      -0.69676746       0.00000000
Si      -1.68764400       2.50527331       2.00834990       0.00000000
Si       3.40503354       1.11259234       0.73476049       0.00000000
Si      -3.47933875      -0.91451246       1.01154724       0.00000000
