10
Lattice="16.28999089631971 0.0 0.0 0.0 16.28999089631971 0.0 0.0 0.0 34.28971787722196" Properties=species:S:1:pos:R:3:initial_magmoms:R:1 pbc="T T T"
Si      -1.27878129       1.39839876       1.44929345       0.00000000
Si      -0.96070275      -1.78329888      -1.26649971       0.00000000
Si       1.46061027      -1.29507129       1.42892535       0.00000000
Si       0.96928758       1.90068462      -1.28151861       0.00000000
Si       0.91489527      -3.32361612      -1.14776459       0.00000000
Si      -2.65453695      -2.65805559       0.09971798       0.00000000
Si      -2.59054983       2.73844674       0.04106882       0.00000000
Si      -2.62855440       0.05957253       2.81382268       0.00000000
Si       0.08531073      -2.65859316       2.81203961       0.00000000
Si      -0.79045596       3.61600533      -1.18355759       0.00000000
