10
Lattice="16.28999089631971 0.0 0.0 0.0 16.28999089631971 0.0 0.0 0.0 34.28971787722196" Properties=species:S:1:pos:R:3:initial_magmoms:R:1 pbc="T T T"
Si      -1.34977311      -1.33882623       1.36452922       0.00000000
Si      -1.31176854       1.34004798      -1.40822464       0.00000000
Si       1.36603053       1.37585340       1.36281474       0.00000000
Si       1.27878129      -1.39839876      -1.44929345       0.00000000
Si       0.48832533       2.21760657      -2.63285105       0.00000000
Si       2.24806887       0.50228586      -2.73081207       0.00000000
Si      -2.72460024      -2.68146432      -0.00243114       0.00000000
Si       0.00565263      -2.69741223       2.72175131       0.00000000
Si      -2.70954828       0.01586646       2.72065403       0.00000000
Si       2.73939156      -2.69347005      -0.02036810       0.00000000
