10
Lattice="16.28999089631971 0.0 0.0 0.0 16.28999089631971 0.0 0.0 0.0 34.28971787722196" Properties=species:S:1:pos:R:3:initial_magmoms:R:1 pbc="T T T"
Si       1.33568226       1.35340578       1.38445156       0.00000000
Si      -1.37529954      -1.36352187       1.38311426       0.00000000
Si      -1.46061027       1.29507129      -1.42892535       0.00000000
Si       1.44554202      -1.37798739      -1.41841212       0.00000000
Si      -0.54571500      -2.02854483      -2.57668995       0.00000000
Si      -2.42131302      -0.48822759      -2.69542506       0.00000000
Si       2.68698663       2.71593396       0.01036236       0.00000000
Si      -2.73939156       2.69347005       0.02036810       0.00000000
Si       2.69645112      -0.00206883       2.74095356       0.00000000
Si       2.69726562      -2.74043412       0.01755977       0.00000000
