10
Lattice="16.28999089631971 0.0 0.0 0.0 16.28999089631971 0.0 0.0 0.0 34.28971787722196" Properties=species:S:1:pos:R:3:initial_magmoms:R:1 pbc="T T T"
Si       0.88203834       1.99530020      -1.09243673       0.00000000
Si      -0.22408361       0.26409674       2.43271968       0.00000000
Si      -1.45193814      -1.60282590      -1.26374826       0.00000000
Si       2.33443519      -0.91092377       0.17148297       0.00000000
Si       0.56728948       3.43483121       0.73548057       0.00000000
Si       1.44705373       1.95275072       2.72065061       0.00000000
Si       2.31177580      -2.62280796       1.78783260       0.00000000
Si      -3.46691340      -1.86639810       0.04817708       0.00000000
Si      -2.18319624      -0.31841900      -3.29075177       0.00000000
Si       3.83230069       0.78977504       0.87154225       0.00000000
