10
Lattice="16.28999089631971 0.0 0.0 0.0 16.28999089631971 0.0 0.0 0.0 34.28971787722196" Properties=species:S:1:pos:R:3:initial_magmoms:R:1 pbc="T T T"
Si       1.35488817      -1.35094599       1.35636484       0.00000000
Si      -1.35778779      -1.35462753      -1.35667345       0.00000000
Si       1.35685926       1.35980775      -1.35677632       0.00000000
Si      -1.35918873       1.36257705       1.36222838       0.00000000
Si       0.01117494      -2.68729451       2.73512088       0.00000000
Si       2.71329498      -2.71266619      -0.00006858       0.00000000
Si      -0.00027693      -2.71258474      -2.71389553       0.00000000
Si      -2.71526607       0.00234576      -2.71375837       0.00000000
Si       2.71513575       0.00208512      -2.71420414       0.00000000
Si       2.71342530       2.71665072      -0.00109727       0.00000000
