10
Lattice="16.28999089631971 0.0 0.0 0.0 16.28999089631971 0.0 0.0 0.0 34.28971787722196" Properties=species:S:1:pos:R:3:initial_magmoms:R:1 pbc="T T T"
Si      -0.79302978      -1.82250891      -1.44082046       0.00000000
Si       1.85073948       0.92227464      -1.41482884       0.00000000
Si      -1.84598280       1.67615955      -0.28498200       0.00000000
Si      -0.27671823       1.01007774       2.30289874       0.00000000
Si       0.49734999       2.17153845      -2.94319100       0.00000000
Si      -2.23365222      -0.56200500      -2.93791038       0.00000000
Si      -0.91934244       3.48599484      -1.51375473       0.00000000
Si       1.69981263       2.30488839       2.90056886       0.00000000
Si      -3.77264997       0.69533865      -1.37954470       0.00000000
Si      -2.12159331       2.62192437       2.31733472       0.00000000
