10
Lattice="16.28999089631971 0.0 0.0 0.0 16.28999089631971 0.0 0.0 0.0 34.28971787722196" Properties=species:S:1:pos:R:3:initial_magmoms:R:1 pbc="T T T"
Si      -0.68579271       1.33498179       1.80147991       0.00000000
Si       0.67359150       0.98670159      -2.05189786       0.00000000
Si      -1.72807578      -1.60469532      -0.36796317       0.00000000
Si       2.06389413      -0.94482000       0.77237633       0.00000000
Si      -1.23269688      -2.98501218       1.67604806       0.00000000
Si       2.22692445      -3.09109266      -0.11322471       0.00000000
Si      -1.72965591       3.30517584       0.96971376       0.00000000
Si       1.06008804       2.39958216       2.87155974       0.00000000
Si       1.90185750      -0.71853561      -3.31780638       0.00000000
Si      -1.13205726      -0.00076563       3.77560866       0.00000000
