10
Lattice="16.28999089631971 0.0 0.0 0.0 16.28999089631971 0.0 0.0 0.0 34.28971787722196" Properties=species:S:1:pos:R:3:initial_magmoms:R:1 pbc="T T T"
Si       1.40838453       1.53979596      -1.11397069       0.00000000
Si       1.06531713      -1.23131223       1.76208101       0.00000000
Si      -1.42096041       1.50775353       1.23333326       0.00000000
Si      -1.27900935      -1.14346026      -1.70841757       0.00000000
Si       1.29984426       0.58218831       3.26054252       0.00000000
Si      -0.24661431       3.03182964      -1.90044010       0.00000000
Si      -3.48620661       0.46037169       1.29652925       0.00000000
Si      -3.10601430       0.27311814      -2.21563136       0.00000000
Si       2.22050619       3.10879989       0.46565463       0.00000000
Si      -1.73739366      -3.34966383      -0.86526722       0.00000000
