10
Lattice="16.28999089631971 0.0 0.0 0.0 16.28999089631971 0.0 0.0 0.0 34.28971787722196" Properties=species:S:1:pos:R:3:initial_magmoms:R:1 pbc="T T T"
Si       1.26789957       1.20899493      -1.57725932       0.00000000
Si       0.00979029       1.20304908       2.04558855       0.00000000
Si       1.01227689      -2.16104769      -0.22123738       0.00000000
Si      -2.36477043      -0.00605988      -0.39169167       0.00000000
Si      -2.23010100      -2.31440175      -0.77254778       0.00000000
Si      -0.33847362       3.31618788       0.94708254       0.00000000
Si      -0.70954353      -3.40355115       0.64667015       0.00000000
Si       1.53551169       3.25497006      -0.46418017       0.00000000
Si       3.34723662       0.16394256      -1.84855972       0.00000000
Si       0.40669614      -1.16848170       3.67832867       0.00000000
