10
Lattice="16.28999089631971 0.0 0.0 0.0 16.28999089631971 0.0 0.0 0.0 34.28971787722196" Properties=species:S:1:pos:R:3:initial_magmoms:R:1 pbc="T T T"
Si       1.75260852       0.90813492       1.33483229       0.00000000
Si      -1.75974354       1.71532071       0.09796102       0.00000000
Si       0.54353214      -0.11349243      -2.41423752       0.00000000
Si      -0.96928758      -1.90068462       1.28151861       0.00000000
Si      -2.24806887      -0.50228586       2.73081207       0.00000000
Si       0.46200069       2.23762698       2.74839927       0.00000000
Si       2.58194871       2.87844300       0.13283368       0.00000000
Si      -3.55983741       0.83776212       1.32258743       0.00000000
Si      -2.64033207       2.04020847      -2.00615536       0.00000000
Si      -0.92100402       3.53621691       1.34530095       0.00000000
