10
Lattice="16.28999089631971 0.0 0.0 0.0 16.28999089631971 0.0 0.0 0.0 34.28971787722196" Properties=species:S:1:pos:R:3:initial_magmoms:R:1 pbc="T T T"
Si       1.73754027       0.89743239       1.19602603       0.00000000
Si      -1.73622078       1.56737493       0.07303714       0.00000000
Si      -1.12185972      -1.86127911       0.88083477       0.00000000
Si       0.50158539      -0.25651863      -2.41694641       0.00000000
Si      -2.54575233      -2.00986020      -0.97290271       0.00000000
Si      -3.49905128       0.15398937      -0.71384375       0.00000000
Si       0.57106224       1.48261806       3.20903933       0.00000000
Si       0.70514523      -3.27785751       1.38804856       0.00000000
Si      -0.57301704       1.83878262      -3.13901969       0.00000000
Si      -1.39833360       2.71019988       2.12421492       0.00000000
