10
Lattice="16.28999089631971 0.0 0.0 0.0 16.28999089631971 0.0 0.0 0.0 34.28971787722196" Properties=species:S:1:pos:R:3:initial_magmoms:R:1 pbc="T T T"
Si      -1.25172360       1.36244673      -1.43597189       0.00000000
Si      -1.35703845      -1.33348474       1.36682321       0.00000000
Si       1.35651717       1.37824803       1.36291418       0.00000000
Si       1.39212711      -1.31102897      -1.44857337       0.00000000
Si       0.68857830       2.23684506      -2.81846006       0.00000000
Si       2.40385014       0.42800346      -2.74326267       0.00000000
Si       2.70730026      -2.69584003      -0.00510917       0.00000000
Si      -2.72748357      -2.68070588      -0.00016802       0.00000000
Si      -0.00024435      -2.69456043       2.72507398       0.00000000
Si      -2.69726562       2.74043412      -0.01755977       0.00000000
