10
Lattice="16.28999089631971 0.0 0.0 0.0 16.28999089631971 0.0 0.0 0.0 34.28971787722196" Properties=species:S:1:pos:R:3:initial_magmoms:R:1 pbc="T T T"
Si      -1.34371323      -1.33634852       1.37875604       0.00000000
Si      -1.35488817       1.35094599      -1.35636484       0.00000000
Si       1.35840681      -1.36172020      -1.35643342       0.00000000
Si       1.34268696       1.34886087       1.39734107       0.00000000
Si       0.06270021      -2.71180135       2.69057851       0.00000000
Si       2.49383610      -0.20321775       2.89148208       0.00000000
Si       0.00197109       2.71075374      -2.71314115       0.00000000
Si      -2.71267596      -0.00368154      -2.71303828       0.00000000
Si      -2.71407690       2.71352304       0.00586355       0.00000000
Si       2.71717200      -0.00402363      -2.71269539       0.00000000
