10
Lattice="16.28999089631971 0.0 0.0 0.0 16.28999089631971 0.0 0.0 0.0 34.28971787722196" Properties=species:S:1:pos:R:3:initial_magmoms:R:1 pbc="T T T"
Si       1.48395384      -1.29849219      -1.28104400       0.00000000
Si      -1.35130437      -1.36252818       1.37408920       0.00000000
Si       1.36673100       1.35835794       1.37474071       0.00000000
Si      -1.42570080       1.38795687      -1.38597403       0.00000000
Si       2.60108946       0.07133391      -2.76675457       0.00000000
Si      -2.68698663      -2.71593396      -0.01036236       0.00000000
Si       2.71635750       2.69781948       0.00684423       0.00000000
Si      -2.71630863       2.71744893       0.02759295       0.00000000
Si      -2.70453096      -0.00434943       2.73131129       0.00000000
Si       0.00858483       2.70971118       2.73196279       0.00000000
