10
Lattice="16.28999089631971 0.0 0.0 0.0 16.28999089631971 0.0 0.0 0.0 34.28971787722196" Properties=species:S:1:pos:R:3:initial_magmoms:R:1 pbc="T T T"
Si      -0.16827570      -1.32543585      -1.91179000       0.00000000
Si      -1.96657767       1.29283956      -0.14758303       0.00000000
Si       1.68412536       1.64998152      -0.12368308       0.00000000
Si      -0.18565713      -1.21482675       2.03489015       0.00000000
Si       1.77502356       1.79318691       2.33211360       0.00000000
Si      -2.35919925      -2.13311034      -1.41589182       0.00000000
Si      -0.67250007       0.31495086      -3.48394015       0.00000000
Si      -3.58746525      -0.42787314      -0.14998331       0.00000000
Si       0.26503830       0.47500011       3.61801302       0.00000000
Si       3.50094906       0.39804615      -1.17425204       0.00000000
