10
Lattice="16.28999089631971 0.0 0.0 0.0 16.28999089631971 0.0 0.0 0.0 34.28971787722196" Properties=species:S:1:pos:R:3:initial_magmoms:R:1 pbc="T T T"
Si      -1.35855342      -1.26530946       1.38952301       0.00000000
Si       1.17986841      -1.50249186      -1.36459438       0.00000000
Si       1.70005698       0.89666676       1.38485961       0.00000000
Si      -1.54114803       1.23290865      -1.33781409       0.00000000
Si       2.49983082       2.57346162      -0.03675860       0.00000000
Si       3.31534080      -0.89863785       1.38588830       0.00000000
Si       2.54348802      -0.14260266      -2.72065061       0.00000000
Si       2.38824432      -2.85839001       0.14885175       0.00000000
Si      -0.17819631       2.57958666      -2.72239938       0.00000000
Si       0.07135020      -2.43675594       2.89827144       0.00000000
