10
Lattice="16.28999089631971 0.0 0.0 0.0 16.28999089631971 0.0 0.0 0.0 34.28971787722196" Properties=species:S:1:pos:R:3:initial_magmoms:R:1 pbc="T T T"
Si      -1.55038446       1.13160114       1.46074280       0.00000000
Si      -0.42585318       1.44309852      -1.89697683       0.00000000
Si      -1.20526452      -1.99795221      -0.87716576       0.00000000
Si       2.28902193      -0.11274309       1.11091890       0.00000000
Si      -1.98395910       2.66154165      -0.33775391       0.00000000
Si       1.49444460       0.02090007       3.36968675       0.00000000
Si      -0.22819032       1.68709014       3.30131301       0.00000000
Si      -3.09685932      -1.09102275      -1.94916581       0.00000000
Si      -1.76355540       0.33185988      -3.49669593       0.00000000
Si      -3.15978759      -0.44212689       2.31260274       0.00000000
