10
Lattice="16.28999089631971 0.0 0.0 0.0 16.28999089631971 0.0 0.0 0.0 34.28971787722196" Properties=species:S:1:pos:R:3:initial_magmoms:R:1 pbc="T T T"
Si       1.35705474       1.35775521       1.35643342       0.00000000
Si       1.35687555      -1.35739683      -1.35763356       0.00000000
Si      -1.35875704      -1.35811359       1.35636484       0.00000000
Si      -1.35813640       1.35762489      -1.35780501       0.00000000
Si       2.71435383      -2.71437012      -0.00054864       0.00000000
Si       2.71388142      -0.00001629      -2.71509567       0.00000000
Si      -0.00131949       2.71326240      -2.71619294       0.00000000
Si      -2.71465879       0.00276930      -2.71488993       0.00000000
Si       2.71451673       2.71508688      -0.00061722       0.00000000
Si       0.00092853      -2.71267596       2.71694731       0.00000000
