10
Lattice="16.28999089631971 0.0 0.0 0.0 16.28999089631971 0.0 0.0 0.0 34.28971787722196" Properties=species:S:1:pos:R:3:initial_magmoms:R:1 pbc="T T T"
Si       1.09641474       2.17710963       0.41524872       0.00000000
Si       1.11848769      -1.90118961      -1.14493432       0.00000000
Si      -0.37224279      -0.66122739       2.40878069       0.00000000
Si      -2.07694242       0.52038405      -1.41962940       0.00000000
Si      -2.21975685       0.99676881       2.27608417       0.00000000
Si      -1.67871708      -0.83600280      -3.25083852       0.00000000
Si       0.54397197      -1.53601668      -3.43579736       0.00000000
Si      -0.06761979      -3.78980334      -0.36227107       0.00000000
Si       1.65472191       0.01150074       3.49437593       0.00000000
Si       0.28360890       3.76800732      -1.05629535       0.00000000
