10
Lattice="16.28999089631971 0.0 0.0 0.0 16.28999089631971 0.0 0.0 0.0 34.28971787722196" Properties=species:S:1:pos:R:3:initial_magmoms:R:1 pbc="T T T"
Si      -1.35652240      -1.35485559      -1.35708492       0.00000000
Si       1.35681691       1.35563751      -1.35838793       0.00000000
Si      -1.35759741       1.35751086       1.35705063       0.00000000
Si       1.35813640      -1.35762489       1.35780501       0.00000000
Si      -2.71456627       0.00026064       2.71392982       0.00000000
Si      -2.71471288      -2.71453302      -0.00041148       0.00000000
Si       2.71519114       0.00013032       2.71423843       0.00000000
Si      -0.00200693       2.71549413       2.71420414       0.00000000
Si      -2.71485949       2.71503801       0.00024003       0.00000000
Si      -0.00062065      -2.71573848       2.71416985       0.00000000
