10
Lattice="16.28999089631971 0.0 0.0 0.0 16.28999089631971 0.0 0.0 0.0 34.28971787722196" Properties=species:S:1:pos:R:3:initial_magmoms:R:1 pbc="T T T"
Si      -1.28528100       1.37085237       1.41078608       0.00000000
Si       1.45257930      -1.35035955       1.39293141       0.00000000
Si      -1.01195109      -1.76580342      -1.31691248       0.00000000
Si       1.62833211       1.20055671      -1.51521003       0.00000000
Si       0.83556297      -3.42379962      -1.18421596       0.00000000
Si      -2.63109564       2.73867873      -0.03926518       0.00000000
Si      -2.63083500      -0.00017919       2.77520558       0.00000000
Si      -2.66738976      -2.76602571       0.02825131       0.00000000
Si       0.08733069      -2.71663443       2.77729725       0.00000000
Si       0.08516412       2.71807351       2.77777731       0.00000000
