10
Lattice="16.28999089631971 0.0 0.0 0.0 16.28999089631971 0.0 0.0 0.0 34.28971787722196" Properties=species:S:1:pos:R:3:initial_magmoms:R:1 pbc="T T T"
Si       1.34374581       1.35215145       1.38453729       0.00000000
Si      -1.36524861      -1.36627488       1.38436584       0.00000000
Si      -1.45257930       1.35035955      -1.39293141       0.00000000
Si       1.40994837      -1.40071194      -1.49155213       0.00000000
Si      -0.61701633      -2.07344007      -2.57714737       0.00000000
Si      -2.46453039      -0.41544387      -2.70984389       0.00000000
Si       2.69692353       2.70607776       0.01291351       0.00000000
Si       2.69570178      -2.73388554       0.01766950       0.00000000
Si       2.70399339      -0.00501732       2.74189653       0.00000000
Si      -0.01062108       2.70735736       2.74309667       0.00000000
