10
Lattice="16.28999089631971 0.0 0.0 0.0 16.28999089631971 0.0 0.0 0.0 34.28971787722196" Properties=species:S:1:pos:R:3:initial_magmoms:R:1 pbc="T T T"
Si       1.28922711       1.94572647      -0.26444245       0.00000000
Si      -0.60577623      -0.83748519      -2.11938007       0.00000000
Si       1.43873347      -1.85455134       0.48471972       0.00000000
Si      -1.67736501       0.30136500       1.73005439       0.00000000
Si       1.89622509       2.40375240       1.95317771       0.00000000
Si       1.38695896      -1.81962558      -2.91809091       0.00000000
Si      -1.92609702      -2.70923388      -1.72158483       0.00000000
Si      -2.95757982      -1.70298918       1.84965700       0.00000000
Si      -1.51780446       0.75437361      -3.56637268       0.00000000
Si       3.47011928       1.57602492      -1.06301614       0.00000000
