10
Lattice="16.28999089631971 0.0 0.0 0.0 16.28999089631971 0.0 0.0 0.0 34.28971787722196" Properties=species:S:1:pos:R:3:initial_magmoms:R:1 pbc="T T T"
Si      -2.21115573       0.41689368      -0.64409842       0.00000000
Si       0.37919862      -1.83622545      -1.40968538       0.00000000
Si      -0.43852680      -0.17417268       2.30793933       0.00000000
Si       1.28021481       2.00435418      -0.11960260       0.00000000
Si      -2.37418605       2.56316634       0.24150262       0.00000000
Si      -2.09222244       1.63085706       2.44187504       0.00000000
Si       1.84801905      -3.20324021      -0.16167611       0.00000000
Si       1.57433076       0.50319810       3.33371681       0.00000000
Si      -0.36268056       3.70773432      -0.39789811       0.00000000
Si      -0.70240851      -2.43666539       2.88716157       0.00000000
