10
Lattice="16.28999089631971 0.0 0.0 0.0 16.28999089631971 0.0 0.0 0.0 34.28971787722196" Properties=species:S:1:pos:R:3:initial_magmoms:R:1 pbc="T T T"
Si       1.83457980       0.79974126      -1.32351527       0.00000000
Si      -1.61528382       1.79530461      -0.00102869       0.00000000
Si       0.54113751       0.14890689       2.41770078       0.00000000
Si      -0.92709648      -1.95975216      -1.23703655       0.00000000
Si      -2.13547239      -0.60385401      -2.75048268       0.00000000
Si       0.57772485       2.13882813      -2.76155826       0.00000000
Si      -1.67265720       0.61843356       3.15421004       0.00000000
Si       1.94540259       2.15966304       2.27121502       0.00000000
Si      -3.31534080       0.89863785      -1.38588830       0.00000000
Si       3.35657146       1.78694784       0.21938574       0.00000000
