10
Lattice="16.28999089631971 0.0 0.0 0.0 16.28999089631971 0.0 0.0 0.0 34.28971787722196" Properties=species:S:1:pos:R:3:initial_magmoms:R:1 pbc="T T T"
Si       1.35577467       1.35654975      -1.35801075       0.00000000
Si      -1.35729909       1.35772263       1.35657058       0.00000000
Si       1.35726208      -1.35752715       1.35681060       0.00000000
Si      -1.35760860      -1.35803214      -1.35801075       0.00000000
Si      -0.00022806       2.71261080       2.71255823       0.00000000
Si       2.71285256       0.00045612       2.71396411       0.00000000
Si       0.00029322      -2.71477737       2.71368979       0.00000000
Si      -2.71484253      -2.71484253      -0.00017145       0.00000000
Si       2.71458908       2.71520091      -0.00030861       0.00000000
Si       2.71485949      -2.71503801      -0.00024003       0.00000000
