10
Lattice="16.28999089631971 0.0 0.0 0.0 16.28999089631971 0.0 0.0 0.0 34.28971787722196" Properties=species:S:1:pos:R:3:initial_magmoms:R:1 pbc="T T T"
Si      -1.35622395      -1.35742941      -1.35927947       0.00000000
Si       1.35886293       1.35804843      -1.35951949       0.00000000
Si      -1.36106208       1.36156707       1.35694776       0.00000000
Si       1.36062225      -1.36062225       1.35869654       0.00000000
Si       2.71019988       0.02217069       2.70367719       0.00000000
Si      -2.71365336       2.71454931      -0.00270889       0.00000000
Si       2.71593396       2.71293660      -0.00353184       0.00000000
Si      -2.71414206       0.00104256      -2.71622723       0.00000000
Si      -2.71526607      -2.71542897      -0.00349755       0.00000000
Si       0.00131949      -2.71451673      -2.71626152       0.00000000
