10
Lattice="16.28999089631971 0.0 0.0 0.0 16.28999089631971 0.0 0.0 0.0 34.28971787722196" Properties=species:S:1:pos:R:3:initial_magmoms:R:1 pbc="T T T"
Si      -1.11713562      -1.36982610       1.48571057       0.00000000
Si       1.84252932      -0.78563412      -1.24091129       0.00000000
Si       1.44937017       1.24297587       1.42227455       0.00000000
Si      -1.42746012      -1.24385553      -1.48670013       0.00000000
Si       0.40830885      -0.97176366      -3.11968028       0.00000000
Si       2.55819789       1.56981843      -1.70642876       0.00000000
Si       0.58199283       1.34762283      -3.19199733       0.00000000
Si      -2.60108946      -0.07133391       2.76675457       0.00000000
Si      -1.90223217      -3.29085693      -0.04450808       0.00000000
Si       2.28151224       3.05222472       0.10514232       0.00000000
