10
Lattice="16.28999089631971 0.0 0.0 0.0 16.28999089631971 0.0 0.0 0.0 34.28971787722196" Properties=species:S:1:pos:R:3:initial_magmoms:R:1 pbc="T T T"
Si      -1.05821469      -1.59905898      -1.30952506       0.00000000
Si       0.81528192      -0.59043105       2.10868167       0.00000000
Si       1.70760049       1.03544127      -1.24485461       0.00000000
Si       2.04232684       1.51837461       2.42232989       0.00000000
Si      -2.39433678      -0.23369634      -2.63118868       0.00000000
Si       0.33554142       2.47665015      -2.60303681       0.00000000
Si      -0.95742846      -0.40866723       3.60114247       0.00000000
Si      -1.85798853      -3.27585384       0.11209315       0.00000000
Si      -2.87067267       2.52262053       0.38613673       0.00000000
Si       3.39570656       1.81516212       0.35387009       0.00000000
