10
Lattice="16.28999089631971 0.0 0.0 0.0 16.28999089631971 0.0 0.0 0.0 34.28971787722196" Properties=species:S:1:pos:R:3:initial_magmoms:R:1 pbc="T T T"
Si      -0.54898929       1.87010829       1.33623676       0.00000000
Si      -1.13295321      -2.12260329       0.32883858       0.00000000
Si       2.36424915      -0.55627092       0.09460538       0.00000000
Si      -1.33188669       0.81945216      -1.91923087       0.00000000
Si       2.27395368      -1.23541731      -2.24714363       0.00000000
Si      -2.90578088       1.64717964       1.09696298       0.00000000
Si       0.55615689       3.66855687       0.08524429       0.00000000
Si       0.23200218      -2.17383534      -3.04791186       0.00000000
Si      -1.01167416      -2.61781929       2.61304941       0.00000000
Si      -3.51277886       1.18915371      -1.12065719       0.00000000
