10
Lattice="16.28999089631971 0.0 0.0 0.0 16.28999089631971 0.0 0.0 0.0 34.28971787722196" Properties=species:S:1:pos:R:3:initial_magmoms:R:1 pbc="T T T"
Si       1.09675913       0.44142642       2.00793842       0.00000000
Si       1.93186272       0.14941188      -1.32303521       0.00000000
Si      -1.69761348       1.67071869      -0.02918057       0.00000000
Si      -0.66474603      -2.27721168      -0.47913050       0.00000000
Si      -0.69183630      -0.44023725       3.32229833       0.00000000
Si      -1.91299986      -1.51093008      -2.52941674       0.00000000
Si       2.65342013      -1.40594103       1.87475708       0.00000000
Si      -3.55583007       0.47589606       0.75543720       0.00000000
Si       1.66055440       2.81525802       1.77891727       0.00000000
Si       1.00954736      -3.13023753       1.75755476       0.00000000
