10
Lattice="16.28999089631971 0.0 0.0 0.0 16.28999089631971 0.0 0.0 0.0 34.28971787722196" Properties=species:S:1:pos:R:3:initial_magmoms:R:1 pbc="T T T"
Si      -1.85821659      -1.19482263       0.78461776       0.00000000
Si      -0.45660870       1.88937514       1.33441941       0.00000000
Si      -0.38638251       0.64848861      -2.24662928       0.00000000
Si       1.69761348      -1.67071869       0.02918057       0.00000000
Si      -2.75121810       2.15090458       0.66772405       0.00000000
Si      -3.18676383      -1.30075650      -1.22500086       0.00000000
Si       2.79437261      -1.22929227       2.03711899       0.00000000
Si      -2.98191708       0.30807648       2.16721425       0.00000000
Si      -1.59075108      -1.17848376      -3.14906658       0.00000000
Si      -1.10889288       1.05939440       3.49597585       0.00000000
