10
Lattice="16.28999089631971 0.0 0.0 0.0 16.28999089631971 0.0 0.0 0.0 34.28971787722196" Properties=species:S:1:pos:R:3:initial_magmoms:R:1 pbc="T T T"
Si       1.35597960       1.35684972       1.35681060       0.00000000
Si       1.35689184      -1.35698025      -1.35742782       0.00000000
Si      -1.35714433       1.35772612      -1.35753069       0.00000000
Si      -1.35995110      -1.35997761       1.35862796       0.00000000
Si      -2.71322809       0.00011860      -2.71416985       0.00000000
Si       2.71298547       0.00062762      -2.71482135       0.00000000
Si      -0.00105885      -2.71390467      -2.71392982       0.00000000
Si       0.00338832      -2.71421418       2.71444416       0.00000000
Si       2.71440270      -2.71449111       0.00048006       0.00000000
Si       0.00159642       2.71515227      -2.71423843       0.00000000
