10
Lattice="16.28999089631971 0.0 0.0 0.0 16.28999089631971 0.0 0.0 0.0 34.28971787722196" Properties=species:S:1:pos:R:3:initial_magmoms:R:1 pbc="T T T"
Si       1.35584928      -1.35635427      -1.36335994       0.00000000
Si       1.34741106       1.35700587       1.37491559       0.00000000
Si      -1.36134878       1.35900954      -1.36339423       0.00000000
Si      -1.37354511      -1.35671265       1.38215072       0.00000000
Si      -0.14853222       2.56029930       2.83233228       0.00000000
Si       2.71174743      -2.71127502      -0.00144017       0.00000000
Si      -2.71625172      -2.71433754      -0.00240028       0.00000000
Si       2.71404432       2.71914309      -0.00161162       0.00000000
Si       2.71331127       0.00097740      -2.72041058       0.00000000
Si      -2.71670622       2.71704168      -0.00768090       0.00000000
