10
Lattice="16.28999089631971 0.0 0.0 0.0 16.28999089631971 0.0 0.0 0.0 34.28971787722196" Properties=species:S:1:pos:R:3:initial_magmoms:R:1 pbc="T T T"
Si       0.83673585       1.72432908       1.43385964       0.00000000
Si       1.49594328      -1.20329343      -1.45741669       0.00000000
Si      -1.21123643       1.48317192      -1.47829914       0.00000000
Si      -1.15278466      -1.53178128       1.49102064       0.00000000
Si      -2.67477632      -2.51898786      -0.05188037       0.00000000
Si      -2.55905092       2.78787060      -0.08634156       0.00000000
Si       0.14853222      -2.56029930      -2.83233228       0.00000000
Si       2.80862406      -2.59498071      -0.02863193       0.00000000
Si      -2.56817400       0.15674238      -2.84001318       0.00000000
Si       2.65823478       2.76832260       0.01052695       0.00000000
