10
Lattice="16.28999089631971 0.0 0.0 0.0 16.28999089631971 0.0 0.0 0.0 34.28971787722196" Properties=species:S:1:pos:R:3:initial_magmoms:R:1 pbc="T T T"
Si      -1.42389261      -0.14858109      -1.85373747       0.00000000
Si       1.12185972       1.86127911      -0.88083477       0.00000000
Si      -1.65563415       0.45991557       1.60311379       0.00000000
Si       1.82700495      -1.41657840       0.50721379       0.00000000
Si      -2.37719156       2.01526848      -1.59467851       0.00000000
Si      -0.38019231       0.18725355       3.51216061       0.00000000
Si      -0.61436106       3.42865404      -0.80779763       0.00000000
Si       2.94523200      -1.66908969      -1.69113554       0.00000000
Si       3.10601430      -0.27311814       2.21563136       0.00000000
Si      -3.29950692      -1.26438093       1.48591146       0.00000000
