10
Lattice="16.28999089631971 0.0 0.0 0.0 16.28999089631971 0.0 0.0 0.0 34.28971787722196" Properties=species:S:1:pos:R:3:initial_magmoms:R:1 pbc="T T T"
Si       1.38624642       1.84479363       0.52785621       0.00000000
Si       1.45127610      -1.96954245       0.04406231       0.00000000
Si      -0.39843711       0.97552665      -2.30121854       0.00000000
Si      -1.66109130       0.09145206       1.97189991       0.00000000
Si       0.88466103       2.10131226       2.94480262       0.00000000
Si       2.70803331      -1.42905654       2.13450184       0.00000000
Si      -0.23719869       0.24003315       3.82563738       0.00000000
Si       0.31164399       3.94009488      -0.19421707       0.00000000
Si      -2.38795762      -2.28058371      -2.24405755       0.00000000
Si      -1.23517296      -0.74880243      -3.73507819       0.00000000
