10
Lattice="16.28999089631971 0.0 0.0 0.0 16.28999089631971 0.0 0.0 0.0 34.28971787722196" Properties=species:S:1:pos:R:3:initial_magmoms:R:1 pbc="T T T"
Si       1.35529687       1.35480672       1.35873083       0.00000000
Si       1.35734616      -1.35728280      -1.35708492       0.00000000
Si      -1.35714518       1.35744570      -1.35746211       0.00000000
Si      -1.35747098      -1.35987291       1.35578191       0.00000000
Si       0.00025220      -2.71399545       2.71290113       0.00000000
Si       2.71418913       0.00087966      -2.71382695       0.00000000
Si       0.00201988       2.71490292      -2.71406698       0.00000000
Si      -2.71454201      -2.71476108      -0.00020574       0.00000000
Si      -2.71496555       2.71490130       0.00051435       0.00000000
Si       2.71506879      -2.71482624       0.00006858       0.00000000
