10
Lattice="16.28999089631971 0.0 0.0 0.0 16.28999089631971 0.0 0.0 0.0 34.28971787722196" Properties=species:S:1:pos:R:3:initial_magmoms:R:1 pbc="T T T"
Si       1.34605899       1.34410419       1.38239075       0.00000000
Si      -1.35968558       1.35456237      -1.36058248       0.00000000
Si       1.35454608      -1.36053428      -1.36082250       0.00000000
Si      -1.35386842      -1.37255468       1.38969446       0.00000000
Si       2.71202436       2.71551042       0.00140588       0.00000000
Si      -2.71597479       2.71244790       0.00044577       0.00000000
Si      -0.00092853       2.71267596      -2.71694731       0.00000000
Si       2.71342530      -0.00169416      -2.71749595       0.00000000
Si       2.71300176      -2.71948088       0.00305179       0.00000000
Si      -2.71923444      -2.71436707       0.00150875       0.00000000
