10
Lattice="16.28999089631971 0.0 0.0 0.0 16.28999089631971 0.0 0.0 0.0 34.28971787722196" Properties=species:S:1:pos:R:3:initial_magmoms:R:1 pbc="T T T"
Si       1.34781448      -1.30469868      -1.39195759       0.00000000
Si      -1.70760049      -1.03544127       1.24485461       0.00000000
Si      -1.37205907       1.44120888      -1.35818219       0.00000000
Si       1.68810607       0.77972085       1.59872470       0.00000000
Si       0.33472635       0.48293334       3.66718451       0.00000000
Si       2.55905092      -2.78787060       0.08634156       0.00000000
Si       2.70958681       2.65828365       0.08280971       0.00000000
Si      -0.00912309      -2.63112822      -2.75367162       0.00000000
Si      -2.76581518      -2.63450025      -0.06467044       0.00000000
Si      -0.89231857      -1.62587232       3.35353628       0.00000000
