10
Lattice="16.28999089631971 0.0 0.0 0.0 16.28999089631971 0.0 0.0 0.0 34.28971787722196" Properties=species:S:1:pos:R:3:initial_magmoms:R:1 pbc="T T T"
Si       1.73622078      -1.56737493      -0.07303714       0.00000000
Si       0.02265939       1.71188419      -1.61634962       0.00000000
Si       0.33788718       1.14282495       2.05117778       0.00000000
Si      -1.76283050      -1.41338556      -0.78688089       0.00000000
Si      -2.03413882       1.25246058       2.31507160       0.00000000
Si       1.16320374       0.27140769      -3.21205683       0.00000000
Si       0.61436106      -3.42865404       0.80779763       0.00000000
Si       3.47376105      -0.66994254       1.12298889       0.00000000
Si       1.11118977       3.28926770       1.37128087       0.00000000
Si      -2.59793409      -1.12137102       2.54409275       0.00000000
