10
Lattice="10.86 0.0 0.0 0.0 10.86 0.0 0.0 0.0 10.86" Properties=species:S:1:pos:R:3:initial_magmoms:R:1 pbc="T T T"
Si      -1.18678080       1.50400140      -1.46971638       0.00000000
Si       1.52821920      -1.21099860      -1.46971638       0.00000000
Si       1.52821920       1.50400140       1.24528362       0.00000000
Si      -0.14272212      -2.32897044       2.56751034       0.00000000
Si      -2.42034648       2.59771200      -0.13868220       0.00000000
Si      -2.46923820      -2.65921218      -0.24836820       0.00000000
Si      -2.54428080       0.14650140      -2.82721638       0.00000000
Si       0.17071920      -2.56849860      -2.82721638       0.00000000
Si       0.21081432       2.74332288       2.67783708       0.00000000
Si       2.88571920      -2.56849860      -0.11221638       0.00000000
