10
Lattice="10.86 0.0 0.0 0.0 10.86 0.0 0.0 0.0 10.86" Properties=species:S:1:pos:R:3:initial_magmoms:R:1 pbc="T T T"
Si       1.37835120      -1.47996822       0.99694800       0.00000000
Si      -1.37730864      -1.54677894      -1.26317004       0.00000000
Si      -0.08264460       1.37597286      -2.05653648       0.00000000
Si      -1.60633518       1.11899268       1.54346664       0.00000000
Si      -2.55521682       2.35829244       0.00565806       0.00000000
Si       0.15978318       2.35829244       2.72065806       0.00000000
Si      -2.55521682      -0.35670756      -2.70934194       0.00000000
Si      -2.55521682      -0.35670756       2.72065806       0.00000000
Si       2.87478318      -0.35670756       2.72065806       0.00000000
Si      -2.55521682      -3.07170756       0.00565806       0.00000000
