10
Lattice="10.86 0.0 0.0 0.0 10.86 0.0 0.0 0.0 10.86" Properties=species:S:1:pos:R:3:initial_magmoms:R:1 pbc="T T T"
Si       1.39558602       1.30713132      -1.40680440       0.00000000
Si       1.39558602      -1.40786868       1.30819560       0.00000000
Si      -1.31941398      -1.40786868      -1.40680440       0.00000000
Si       0.01844028       2.55306654       2.65587816       0.00000000
Si      -2.62808742       2.62327644       0.01179396       0.00000000
Si       2.75308602       2.66463132      -0.04930440       0.00000000
Si       2.75308602      -0.05036868       2.66569560       0.00000000
Si       0.03808602       2.66463132      -2.76430440       0.00000000
Si       0.03808602      -2.76536868       2.66569560       0.00000000
Si      -2.67691398      -0.05036868      -2.76430440       0.00000000
