10
Lattice="10.86 0.0 0.0 0.0 10.86 0.0 0.0 0.0 10.86" Properties=species:S:1:pos:R:3:initial_magmoms:R:1 pbc="T T T"
Si      -1.40632656       1.39885488       1.29640164       0.00000000
Si       1.30867344       1.39885488      -1.41859836       0.00000000
Si      -1.40632656      -1.31614512      -1.41859836       0.00000000
Si       2.62808742      -2.62327644      -0.01179396       0.00000000
Si       2.64652770      -0.07020990       2.64408420       0.00000000
Si      -0.04882656       2.75635488       2.65390164       0.00000000
Si      -2.76382656       0.04135488       2.65390164       0.00000000
Si       2.66617344       2.75635488      -0.06109836       0.00000000
Si      -2.76382656      -2.67364512      -0.06109836       0.00000000
Si       2.66617344       0.04135488      -2.77609836       0.00000000
