10
Lattice="10.86 0.0 0.0 0.0 10.86 0.0 0.0 0.0 10.86" Properties=species:S:1:pos:R:3:initial_magmoms:R:1 pbc="T T T"
Si       1.37714574      -1.24593522       1.36731744       0.00000000
Si      -1.33785426       1.46906478       1.36731744       0.00000000
Si       1.37714574       1.46906478      -1.34768256       0.00000000
Si      -0.01844028      -2.55306654      -2.65587816       0.00000000
Si      -2.64652770       0.07020990      -2.64408420       0.00000000
Si       0.01964574      -2.60343522       2.72481744       0.00000000
Si       2.73464574      -2.60343522       0.00981744       0.00000000
Si      -2.69535426       0.11156478       2.72481744       0.00000000
Si       2.73464574       0.11156478      -2.70518256       0.00000000
Si      -2.81932116      -2.62877160       0.10104144       0.00000000
