10
Lattice="16.28999089631971 0.0 0.0 0.0 16.28999089631971 0.0 0.0 0.0 34.281931910070035" Properties=species:S:1:pos:R:3:initial_magmoms:R:1 pbc="T T T"
Si       0.63671094      -1.07046477      -2.00206594       0.00000000
Si       0.08444736       2.26191537      -0.69372956       0.00000000
Si      -2.31076908      -0.54667611       0.24093355       0.00000000
Si       1.86873993       0.72413937       1.77265113       0.00000000
Si      -1.03808025      -0.01397682      -3.23169096       0.00000000
Si      -3.00933315       0.21427866      -1.91821229       0.00000000
Si      -0.33143634       3.36416193       1.39644099       0.00000000
Si      -2.48839524      -2.83308675       0.72321204       0.00000000
Si      -3.21165495       0.72694125       2.00504847       0.00000000
Si       0.54801189       2.06990514       3.31023091       0.00000000
