10
Lattice="16.28999089631971 0.0 0.0 0.0 16.28999089631971 0.0 0.0 0.0 34.281931910070035" Properties=species:S:1:pos:R:3:initial_magmoms:R:1 pbc="T T T"
Si       1.22741892      -0.66852531       1.82997055       0.00000000
Si      -2.17360728      -0.63741141       0.69774055       0.00000000
Si       0.54889155      -1.08958923      -2.04443843       0.00000000
Si       0.05056416       2.32938855      -0.49705401       0.00000000
Si      -3.15819117      -0.25602993      -1.36281040       0.00000000
Si      -1.69331292      -1.75335786      -2.57796844       0.00000000
Si       0.82383417      -2.99687130       1.91546973       0.00000000
Si       1.69741800       0.53201511      -3.32641199       0.00000000
Si       1.37614662       3.36197907       1.05036470       0.00000000
Si       0.43170129       0.36702999       3.76367828       0.00000000
