10
Lattice="16.28999089631971 0.0 0.0 0.0 16.28999089631971 0.0 0.0 0.0 34.281931910070035" Properties=species:S:1:pos:R:3:initial_magmoms:R:1 pbc="T T T"
Si       1.29414276       1.27003356       1.53285029       0.00000000
Si       1.32072804      -1.34576577      -1.53757979       0.00000000
Si      -0.87944823       1.29425679      -1.91378992       0.00000000
Si      -1.43905860      -1.36446669       1.64016994       0.00000000
Si      -3.21284412       1.11418713      -1.46637618       0.00000000
Si       2.52623691      -2.79696042       0.10123460       0.00000000
Si      -0.54801189      -2.06990514      -3.31023091       0.00000000
Si       2.49900003      -0.19315053       3.06098883       0.00000000
Si       2.57222358       3.01156488       0.08213955       0.00000000
Si      -0.22589343       2.50945821       3.05759491       0.00000000
