10
Lattice="16.28999089631971 0.0 0.0 0.0 16.28999089631971 0.0 0.0 0.0 34.281931910070035" Properties=species:S:1:pos:R:3:initial_magmoms:R:1 pbc="T T T"
Si      -2.33339589      -0.18006966       0.44741374       0.00000000
Si       0.41588370      -1.10224656      -2.09017056       0.00000000
Si       0.35890128       2.37832371      -0.37357042       0.00000000
Si       0.87944823      -1.29425679       1.91378992       0.00000000
Si       2.20017627      -2.64002256       0.37621013       0.00000000
Si       2.54376495      -0.30358044      -2.53384757       0.00000000
Si       0.33143634      -3.36416193      -1.39644099       0.00000000
Si      -1.70711055       3.35231910      -0.00716493       0.00000000
Si      -2.63164950       1.73736108       2.08430834       0.00000000
Si      -0.88062111      -0.12834891      -3.77008900       0.00000000
