10
Lattice="16.28999089631971 0.0 0.0 0.0 16.28999089631971 0.0 0.0 0.0 34.281931910070035" Properties=species:S:1:pos:R:3:initial_magmoms:R:1 pbc="T T T"
Si       1.78452063      -1.02021012       1.02814999       0.00000000
Si      -2.04568910      -0.83463444       0.71567001       0.00000000
Si       0.53496360      -0.91307079      -2.08900497       0.00000000
Si      -0.37236822       2.32213950       0.12742601       0.00000000
Si      -0.80705221       0.63242667      -3.18767294       0.00000000
Si      -0.65341959      -2.91666260      -1.65646959       0.00000000
Si       1.85235219       2.91081123      -0.30648064       0.00000000
Si      -1.63270597       2.46001806      -1.86294978       0.00000000
Si       2.19183579       0.45931284       2.72572365       0.00000000
Si      -1.74173885      -0.25853859       3.08037043       0.00000000
