10
Lattice="16.28999089631971 0.0 0.0 0.0 16.28999089631971 0.0 0.0 0.0 34.281931910070035" Properties=species:S:1:pos:R:3:initial_magmoms:R:1 pbc="T T T"
Si       1.48342767      -1.65764175      -0.49588842       0.00000000
Si      -1.70239852       0.05105286      -1.58235202       0.00000000
Si       1.18838319       2.00359181      -0.43253538       0.00000000
Si      -1.01205372      -0.22891101       2.13545701       0.00000000
Si       0.65341959       2.91666260       1.65646959       0.00000000
Si       2.11947072      -0.68828901      -2.61571287       0.00000000
Si      -1.39226950       2.08202816       2.37213960       0.00000000
Si      -2.14099048       2.30414231      -1.57073043       0.00000000
Si       0.19178380      -3.64285518      -0.30277819       0.00000000
Si      -3.38916286      -1.21979913      -0.68910150       0.00000000
