10
Lattice="16.28999089631971 0.0 0.0 0.0 16.28999089631971 0.0 0.0 0.0 34.281931910070035" Properties=species:S:1:pos:R:3:initial_magmoms:R:1 pbc="T T T"
Si       1.35782037       1.35563997      -1.35787380       0.00000000
Si      -1.35679410      -1.35941679      -1.35777095       0.00000000
Si      -1.35899325       1.35712464       1.35835375       0.00000000
Si       1.35677781      -1.36259334       1.36164481       0.00000000
Si      -2.70793557       0.00159642       2.70344038       0.00000000
Si      -2.71362078       2.71340642      -0.00003428       0.00000000
Si       0.00013032       2.71370779      -2.71468486       0.00000000
Si      -2.71375110      -2.71472850      -0.00037710       0.00000000
Si       2.71608057       2.71284116       0.00044567       0.00000000
Si      -2.71422351      -0.00182448      -2.71519909       0.00000000
