10
Lattice="16.28999089631971 0.0 0.0 0.0 16.28999089631971 0.0 0.0 0.0 34.281931910070035" Properties=species:S:1:pos:R:3:initial_magmoms:R:1 pbc="T T T"
Si       0.74215611      -2.08323036       0.93161202       0.00000000
Si      -1.91640447      -0.08008164      -1.47652363       0.00000000
Si       0.08752617       1.99897848       1.44097325       0.00000000
Si       2.10543363       1.38131055      -0.34329946       0.00000000
Si      -0.36413037       1.22864067      -2.75969706       0.00000000
Si      -2.48779251      -0.19805382       2.16168271       0.00000000
Si       0.80552421       2.88761427      -1.53757979       0.00000000
Si      -1.16991522      -2.28934773       2.21296851       0.00000000
Si      -3.35135799       0.77069619       0.21611342       0.00000000
Si      -1.14691374       1.32294348       3.36395073       0.00000000
