10
Lattice="16.28999089631971 0.0 0.0 0.0 16.28999089631971 0.0 0.0 0.0 34.281931910070035" Properties=species:S:1:pos:R:3:initial_magmoms:R:1 pbc="T T T"
Si       1.29990942      -1.50630372       1.19428033       0.00000000
Si       1.64835252       0.95517297      -1.35341715       0.00000000
Si      -1.16965458      -1.65897360      -1.22211727       0.00000000
Si      -1.66179177       0.93067932       1.66174901       0.00000000
Si      -0.71799804      -0.88863579       2.97855304       0.00000000
Si      -0.80552421      -2.88761427       1.53757979       0.00000000
Si       0.08902485       2.10559394      -2.67666618       0.00000000
Si       2.49373836       2.54857769       0.31597674       0.00000000
Si       1.62179982      -0.41928831       3.26758417       0.00000000
Si      -2.90038563       2.45031641       0.03832722       0.00000000
