10
Lattice="16.28999089631971 0.0 0.0 0.0 16.28999089631971 0.0 0.0 0.0 34.281931910070035" Properties=species:S:1:pos:R:3:initial_magmoms:R:1 pbc="T T T"
Si      -0.94941378      -2.04913539      -0.54837409       0.00000000
Si       2.23951662      -0.27228735      -0.65824774       0.00000000
Si      -0.85504581       1.38357486      -1.74741961       0.00000000
Si      -0.07553673       0.45238959       2.35222179       0.00000000
Si       2.93322627      -1.56939489       1.16555205       0.00000000
Si       2.22387822       0.00933417       2.78239171       0.00000000
Si      -3.23608995      -1.70259822      -0.02742556       0.00000000
Si      -2.19592458      -0.13742244      -2.94968763       0.00000000
Si      -2.89067679       2.20053465       0.92794385       0.00000000
Si      -0.87804729      -2.22871635      -2.89840184       0.00000000
