10
Lattice="16.28999089631971 0.0 0.0 0.0 16.28999089631971 0.0 0.0 0.0 34.281931910070035" Properties=species:S:1:pos:R:3:initial_magmoms:R:1 pbc="T T T"
Si      -0.73896327      -2.21325714      -0.29324781       0.00000000
Si       1.04536188       0.69625319      -2.01039646       0.00000000
Si      -1.64020752       1.21198807       1.22444845       0.00000000
Si       1.29845961      -2.06079903       1.34220695       0.00000000
Si       1.48489866       2.97461006      -1.50082954       0.00000000
Si       1.32201495      -3.35098332      -0.69208403       0.00000000
Si      -0.94296294      -3.13810560       1.94508934       0.00000000
Si       3.00353391      -0.57251205      -2.30947220       0.00000000
Si      -1.46258136       3.49839872       0.74216996       0.00000000
Si      -0.50969781       0.30216321      -3.83587607       0.00000000
