10
Lattice="16.28999089631971 0.0 0.0 0.0 16.28999089631971 0.0 0.0 0.0 34.281931910070035" Properties=species:S:1:pos:R:3:initial_magmoms:R:1 pbc="T T T"
Si      -1.64835252      -0.95517297       1.35341715       0.00000000
Si      -1.55932767       1.15042098      -1.32324903       0.00000000
Si       1.18022679      -1.58416245      -1.30518244       0.00000000
Si       0.84538584       1.59340472       1.66939389       0.00000000
Si       2.48295438       2.53886003       0.14305858       0.00000000
Si      -0.34844310      -2.46147669       2.54769748       0.00000000
Si      -0.20629656       2.50276139      -2.69003614       0.00000000
Si       2.51867835      -0.21678323      -2.68989901       0.00000000
Si      -2.81193093       2.56775849       0.16647315       0.00000000
Si      -0.83655666       3.41698877       1.54285921       0.00000000
