10
Lattice="16.28999089631971 0.0 0.0 0.0 16.28999089631971 0.0 0.0 0.0 34.281931910070035" Properties=species:S:1:pos:R:3:initial_magmoms:R:1 pbc="T T T"
Si      -1.34571690      -1.36301688      -1.37552900       0.00000000
Si       1.37184606       1.35410625      -1.37412344       0.00000000
Si       1.35843939      -1.44845793       1.31875809       0.00000000
Si      -1.33291296       1.48688604       1.39740089       0.00000000
Si      -2.69964396      -2.69553888       0.00473091       0.00000000
Si      -2.70008379      -0.00570150      -2.73271717       0.00000000
Si       2.72578941       2.71160082      -0.00449094       0.00000000
Si       0.01379763       2.71023246      -2.73542544       0.00000000
Si      -2.70646947       2.73979881      -0.01069597       0.00000000
Si       0.01378134      -2.71832859      -2.73405416       0.00000000
