10
Lattice="16.28999089631971 0.0 0.0 0.0 16.28999089631971 0.0 0.0 0.0 34.281931910070035" Properties=species:S:1:pos:R:3:initial_magmoms:R:1 pbc="T T T"
Si       0.17762616       2.28641064      -0.48227849       0.00000000
Si      -2.28381890      -0.37841507      -0.49636837       0.00000000
Si       1.64020752      -1.21198807      -1.22444845       0.00000000
Si       0.11419290       2.20735527       3.00537048       0.00000000
Si      -2.49699245      -0.11894306      -2.84142523       0.00000000
Si       2.48839524       2.83308675      -0.72321204       0.00000000
Si      -0.72325971       3.56002800       1.28183643       0.00000000
Si       0.90124425      -3.42524521      -1.51769626       0.00000000
Si      -3.62668247       0.91845789       0.97364169       0.00000000
Si      -2.79009323      -0.50495742       2.75208647       0.00000000
