10
Lattice="16.28999089631971 0.0 0.0 0.0 16.28999089631971 0.0 0.0 0.0 34.281931910070035" Properties=species:S:1:pos:R:3:initial_magmoms:R:1 pbc="T T T"
Si       1.25859798       1.50967575      -1.25845614       0.00000000
Si      -0.45168912       1.12272309       2.04978642       0.00000000
Si      -1.92836133      -0.45895446      -1.35753098       0.00000000
Si       1.62175095      -1.75422123      -0.31261711       0.00000000
Si      -0.01163106      -0.63184023       3.53093811       0.00000000
Si       0.25971147       1.10747565      -3.44571318       0.00000000
Si      -0.90194472      -1.03638609      -3.46830499       0.00000000
Si      -2.86673049       1.75770729      -1.65694954       0.00000000
Si       3.68520525      -0.65247966       0.36743395       0.00000000
Si       1.14443766      -2.12913558      -2.93686618       0.00000000
