10
Lattice="16.28999089631971 0.0 0.0 0.0 16.28999089631971 0.0 0.0 0.0 34.281931910070035" Properties=species:S:1:pos:R:3:initial_magmoms:R:1 pbc="T T T"
Si       1.49211513       1.03834089      -1.50766334       0.00000000
Si      -1.30680009       1.40164047       1.39208719       0.00000000
Si       1.40349753      -1.33001334       1.38847044       0.00000000
Si      -1.82092878      -0.95239485      -1.24189042       0.00000000
Si       2.64433941       2.58586224       0.00736719       0.00000000
Si      -2.65966830      -2.63702520       0.12347673       0.00000000
Si      -2.57994504       2.76694351      -0.11904750       0.00000000
Si      -3.47628600       0.87967629      -1.35486868       0.00000000
Si      -2.67188580       0.03256371       2.75908341       0.00000000
Si       0.04808808      -2.68372863       2.75963193       0.00000000
