10
Lattice="16.28999089631971 0.0 0.0 0.0 16.28999089631971 0.0 0.0 0.0 34.281931910070035" Properties=species:S:1:pos:R:3:initial_magmoms:R:1 pbc="T T T"
Si      -1.35540945      -1.35371529       1.37116148       0.00000000
Si       1.35713619       1.36397799       1.36848749       0.00000000
Si      -1.40349753       1.33001334      -1.38847044       0.00000000
Si       1.44366867      -1.29248118      -1.39846363       0.00000000
Si       0.08861760       2.36835423      -2.89613378       0.00000000
Si      -2.68970706      -2.71492398      -0.00466920       0.00000000
Si       2.70943425      -2.71417464       0.00476862       0.00000000
Si       2.71402803       2.71705261      -0.00388072       0.00000000
Si       0.00030951      -2.70899442       2.72721834       0.00000000
Si      -2.71280628       0.00684180       2.72817824       0.00000000
