10
Lattice="16.28999089631971 0.0 0.0 0.0 16.28999089631971 0.0 0.0 0.0 34.281931910070035" Properties=species:S:1:pos:R:3:initial_magmoms:R:1 pbc="T T T"
Si       1.33845156       1.36737921      -1.38471657       0.00000000
Si      -1.18022679       1.58416245       1.30518244       0.00000000
Si      -1.38157119      -1.34915409      -1.38255680       0.00000000
Si       1.44036180      -1.30766346       1.58955123       0.00000000
Si       2.70299970      -2.69213427       0.00342820       0.00000000
Si       2.68447797       2.71832763       0.01172443       0.00000000
Si      -2.74137894      -2.68309332       0.00977036       0.00000000
Si       2.69241120       0.01246185      -2.74416734       0.00000000
Si      -0.01951542      -2.70119151      -2.74427018       0.00000000
Si      -0.02226843       2.72628041      -2.74375595       0.00000000
