10
Lattice="16.28999089631971 0.0 0.0 0.0 16.28999089631971 0.0 0.0 0.0 34.281931910070035" Properties=species:S:1:pos:R:3:initial_magmoms:R:1 pbc="T T T"
Si      -1.43819523      -1.19596293       1.47864911       0.00000000
Si       1.26263790      -1.38447081      -1.58612303       0.00000000
Si       1.32265026       1.32747210       1.59061397       0.00000000
Si      -1.44036180       1.30766346      -1.58955123       0.00000000
Si      -2.96903169       0.43034922       2.26332869       0.00000000
Si       2.60819190       2.72408957       0.09053863       0.00000000
Si       2.81965239      -2.58287724      -0.14850941       0.00000000
Si      -2.77975818      -2.69496873      -0.06784398       0.00000000
Si      -2.62058859       2.89182591      -0.28436878       0.00000000
Si       2.60547147      -0.03598461      -2.97251941       0.00000000
