10
Lattice="16.28999089631971 0.0 0.0 0.0 16.28999089631971 0.0 0.0 0.0 34.281931910070035" Properties=species:S:1:pos:R:3:initial_magmoms:R:1 pbc="T T T"
Si       2.30166297       0.17284458       0.52537090       0.00000000
Si       0.37326906      -1.40690214      -1.86942907       0.00000000
Si      -1.08792765      -0.94770333       1.91060170       0.00000000
Si      -0.80894511       2.23113446      -0.36088610       0.00000000
Si       2.41220691      -1.41226155       2.17172732       0.00000000
Si      -0.42858990      -0.10318086      -3.68023601       0.00000000
Si      -3.04609968       0.32106191       2.20967744       0.00000000
Si       2.72756502       2.23932833       1.50857726       0.00000000
Si      -0.63881235       3.36656375       1.73569518       0.00000000
Si       0.71498439      -0.86405418       3.70241643       0.00000000
