10
Lattice="16.28999089631971 0.0 0.0 0.0 16.28999089631971 0.0 0.0 0.0 34.281931910070035" Properties=species:S:1:pos:R:3:initial_magmoms:R:1 pbc="T T T"
Si      -1.49211513      -1.03834089       1.50766334       0.00000000
Si      -1.13964840       1.81066023      -1.16486642       0.00000000
Si       1.15222428       1.54752135       1.51503053       0.00000000
Si       0.83165337      -1.75282029      -1.54711017       0.00000000
Si       0.98699481       2.80449359      -1.77169123       0.00000000
Si      -0.08861760      -2.36835423       2.89613378       0.00000000
Si       2.73067641      -2.57641011      -0.10846809       0.00000000
Si      -3.31304391      -1.99073574       0.26577292       0.00000000
Si       2.36952711      -0.70232706      -3.01262930       0.00000000
Si       1.92217113       3.39450110       0.34118430       0.00000000
