10
Lattice="16.28999089631971 0.0 0.0 0.0 16.28999089631971 0.0 0.0 0.0 34.281931910070035" Properties=species:S:1:pos:R:3:initial_magmoms:R:1 pbc="T T T"
Si      -1.35546484      -1.35716877       1.35722244       0.00000000
Si      -1.35749294       1.35726651      -1.35814806       0.00000000
Si       1.35980775       1.35760860       1.35567976       0.00000000
Si       1.35786924      -1.35814617      -1.35756526       0.00000000
Si      -2.71460624       2.71454931      -0.00017141       0.00000000
Si       2.71485882       2.71446786      -0.00006856       0.00000000
Si       2.71428867      -0.00109143      -2.71591901       0.00000000
Si       0.00144981       2.71375110       2.71653608       0.00000000
Si      -2.71509973      -2.71533123       0.00013713       0.00000000
Si       2.71511946      -2.71546155       0.00003428       0.00000000
