10
Lattice="16.28999089631971 0.0 0.0 0.0 16.28999089631971 0.0 0.0 0.0 34.281931910070035" Properties=species:S:1:pos:R:3:initial_magmoms:R:1 pbc="T T T"
Si      -1.35319401       1.35601707       1.36109630       0.00000000
Si      -1.35782037      -1.35689527      -1.35715388       0.00000000
Si       1.35713053       1.35868863      -1.35708532       0.00000000
Si       1.35838602      -1.35547691       1.36150769       0.00000000
Si       2.68967026       0.01391655       2.73213437       0.00000000
Si      -2.71490769      -2.71313438       0.00027426       0.00000000
Si      -0.00008145      -2.71411178      -2.71489055       0.00000000
Si       2.71552412      -2.71401404       0.00017141       0.00000000
Si       2.71460048       0.00123478      -2.71502768       0.00000000
Si       0.02044395       2.70649065       2.72328963       0.00000000
