10
Lattice="16.28999089631971 0.0 0.0 0.0 16.28999089631971 0.0 0.0 0.0 34.281931910070035" Properties=species:S:1:pos:R:3:initial_magmoms:R:1 pbc="T T T"
Si      -1.28500407       1.34143263      -1.58334619       0.00000000
Si       1.93418405       0.70625295       1.38972173       0.00000000
Si       1.38422224      -1.35114147      -1.57450145       0.00000000
Si      -1.91697462      -0.82042956       1.52794656       0.00000000
Si      -2.67599088       2.62215243      -0.25351503       0.00000000
Si      -2.66421321      -2.67422814       0.11789563       0.00000000
Si       2.69898326       2.68400556      -0.12379213       0.00000000
Si       1.08537568      -3.48373772       1.16520923       0.00000000
Si       2.86040087      -2.60435560      -0.29653888       0.00000000
Si      -3.63148083       0.95711895       1.10113627       0.00000000
