10
Lattice="16.28999089631971 0.0 0.0 0.0 16.28999089631971 0.0 0.0 0.0 34.281931910070035" Properties=species:S:1:pos:R:3:initial_magmoms:R:1 pbc="T T T"
Si      -0.24324228       2.30084847      -0.32646702       0.00000000
Si      -2.14524639      -0.92698245       0.26445097       0.00000000
Si       0.86076360      -0.34771005      -2.21468260       0.00000000
Si       1.60948458      -0.56982420       1.72818744       0.00000000
Si       2.02246770       2.72482830      -0.85043236       0.00000000
Si       1.29935556      -2.60079950      -2.22630418       0.00000000
Si       2.84812146       0.89723691      -2.17515551       0.00000000
Si      -3.10594914      -1.01416653      -1.86582947       0.00000000
Si       3.65517368       0.26481024       1.01251742       0.00000000
Si       1.98970037      -2.88076337       1.49150485       0.00000000
