10
Lattice="16.28999089631971 0.0 0.0 0.0 16.28999089631971 0.0 0.0 0.0 34.281931910070035" Properties=species:S:1:pos:R:3:initial_magmoms:R:1 pbc="T T T"
Si       1.90346534      -1.09116936      -0.86668200       0.00000000
Si      -0.00184077       2.00101473      -1.25667348       0.00000000
Si      -1.32900336      -1.98995382      -0.12183805       0.00000000
Si      -0.18730242       0.96749568       2.21529968       0.00000000
Si      -1.26952857      -2.65946793       2.26843670       0.00000000
Si       1.88973255      -3.31137093      -0.10785102       0.00000000
Si       2.25671139       2.51125011      -1.83199318       0.00000000
Si      -2.46021354       0.68201343       2.87306747       0.00000000
Si       3.86578709      -0.14506245       0.09214988       0.00000000
Si       1.59951510      -1.66726521      -3.23138243       0.00000000
