10
Lattice="16.28999089631971 0.0 0.0 0.0 16.28999089631971 0.0 0.0 0.0 34.281931910070035" Properties=species:S:1:pos:R:3:initial_magmoms:R:1 pbc="T T T"
Si       1.34286356      -1.29687296      -1.47001006       0.00000000
Si       0.45499599       2.33046369       0.16304496       0.00000000
Si       0.83658924      -1.42341531       1.77844478       0.00000000
Si      -2.02957110      -0.38549796      -1.43877920       0.00000000
Si      -3.34875159       0.80749530       0.02660279       0.00000000
Si      -2.41357527       1.39750281       2.13947833       0.00000000
Si      -1.96621929      -2.69932535      -1.21433527       0.00000000
Si       0.31695453      -3.44869793      -1.06603155       0.00000000
Si      -0.94734495       3.24146565      -1.49191623       0.00000000
Si       3.62668247      -0.91845789      -0.97364169       0.00000000
