10
Lattice="16.28999089631971 0.0 0.0 0.0 16.28999089631971 0.0 0.0 0.0 34.281931910070035" Properties=species:S:1:pos:R:3:initial_magmoms:R:1 pbc="T T T"
Si       1.35180936      -1.35905841       1.35948505       0.00000000
Si      -1.36203948       1.35534429       1.35955362       0.00000000
Si       1.34653140       1.35747828      -1.37463082       0.00000000
Si      -1.36889757      -1.37554389      -1.36740075       0.00000000
Si       2.53412127      -0.10865430      -2.83509678       0.00000000
Si       2.71246419       2.71365336       0.00092561       0.00000000
Si       2.71057455      -0.00153126       2.71643324       0.00000000
Si       2.71332756      -2.71640963      -0.00267399       0.00000000
Si      -0.00449604       2.71344159       2.71674178       0.00000000
Si      -0.00491958      -2.71588509       2.71681034       0.00000000
