10
Lattice="16.28999089631971 0.0 0.0 0.0 16.28999089631971 0.0 0.0 0.0 34.281931910070035" Properties=species:S:1:pos:R:3:initial_magmoms:R:1 pbc="T T T"
Si       1.04823155       1.76169834      -1.18454426       0.00000000
Si      -1.71321930      -1.07158878      -1.25643351       0.00000000
Si      -1.30556205       1.54867401       1.29592631       0.00000000
Si      -0.32223249      -2.35230858      -2.58626467       0.00000000
Si       2.37307574       0.37950813      -2.58088240       0.00000000
Si      -0.69649524      -1.89025902       2.94944766       0.00000000
Si       0.27904770       0.07105698       3.70587891       0.00000000
Si       0.20805588       2.35827072       2.94924197       0.00000000
Si      -2.66870925      -2.73662226       0.09821779       0.00000000
Si      -2.89134468      -1.56989988       2.14670149       0.00000000
