10
Lattice="16.28999089631971 0.0 0.0 0.0 16.28999089631971 0.0 0.0 0.0 34.281931910070035" Properties=species:S:1:pos:R:3:initial_magmoms:R:1 pbc="T T T"
Si      -0.39208401      -1.85681565       1.46915301       0.00000000
Si      -1.62175095       1.75422123       0.31261711       0.00000000
Si       2.06345430       1.10174157       0.68005106       0.00000000
Si      -0.47731329      -0.37491435      -2.62424907       0.00000000
Si      -0.36315297       3.26389698      -0.94583903       0.00000000
Si       2.72588715      -0.98645724      -1.82174288       0.00000000
Si       1.91381436       2.83103910      -0.90847170       0.00000000
Si      -2.09328129      -1.02029157       3.00145338       0.00000000
Si      -0.76874139      -3.81000294       0.13822483       0.00000000
Si      -3.55011228       1.29526677      -1.04491387       0.00000000
