10
Lattice="16.28999089631971 0.0 0.0 0.0 16.28999089631971 0.0 0.0 0.0 34.281931910070035" Properties=species:S:1:pos:R:3:initial_magmoms:R:1 pbc="T T T"
Si       1.35407108      -1.35783666      -1.35519981       0.00000000
Si      -1.35687555      -1.35720135       1.35633111       0.00000000
Si       1.35734863       1.35764118       1.35622827       0.00000000
Si      -1.35524655       1.35583299      -1.36497016       0.00000000
Si       2.70786131      -0.00324171      -2.69164396       0.00000000
Si       0.00029235      -2.71427238       2.71348499       0.00000000
Si       2.71509407      -2.71270854      -0.00143984       0.00000000
Si      -2.71469592       0.00079821       2.71375925       0.00000000
Si       2.71499633       0.00045612       2.71358784       0.00000000
Si      -2.71393029      -2.71490769      -0.00130271       0.00000000
