10
Lattice="16.28999089631971 0.0 0.0 0.0 16.28999089631971 0.0 0.0 0.0 34.281931910070035" Properties=species:S:1:pos:R:3:initial_magmoms:R:1 pbc="T T T"
Si       1.35687555       1.35720135      -1.35633111       0.00000000
Si       1.35716790      -1.35707103       1.35715388       0.00000000
Si      -1.35705474      -1.35770634      -1.35763383       0.00000000
Si      -1.35782037       1.35799956       1.35742813       0.00000000
Si       2.71094663      -0.00063531      -2.71153092       0.00000000
Si       2.71428120      -2.71435383      -0.00082277       0.00000000
Si       0.00004887      -2.71467963       2.71406778       0.00000000
Si       2.71422418       2.71484253      -0.00010285       0.00000000
Si      -2.71564074       0.00026064       2.71348499       0.00000000
Si       2.71534982       0.00208512       2.71441060       0.00000000
