10
Lattice="16.28999089631971 0.0 0.0 0.0 16.28999089631971 0.0 0.0 0.0 34.281931910070035" Properties=species:S:1:pos:R:3:initial_magmoms:R:1 pbc="T T T"
Si      -0.14963994       1.72929753      -1.58852277       0.00000000
Si       2.04276830      -1.11576726       0.45581282       0.00000000
Si      -0.17700714       1.02499938       2.15904300       0.00000000
Si      -2.06345430      -1.10174157      -0.68005106       0.00000000
Si       0.59144103       0.19901493      -3.25843089       0.00000000
Si       0.66243285      -2.08819881      -2.50179394       0.00000000
Si      -2.42660727       2.16215541      -1.62589009       0.00000000
Si      -3.68520525       0.65247966      -0.36743395       0.00000000
Si       3.31029809       0.39866517       1.74512272       0.00000000
Si       2.80446264      -2.09409579      -1.58296909       0.00000000
