10
Lattice="16.28999089631971 0.0 0.0 0.0 16.28999089631971 0.0 0.0 0.0 34.281931910070035" Properties=species:S:1:pos:R:3:initial_magmoms:R:1 pbc="T T T"
Si      -1.35680473       1.35718506      -1.35801093       0.00000000
Si       1.35746995      -1.35745384      -1.35794236       0.00000000
Si      -1.35713053      -1.35868863       1.35708532       0.00000000
Si       1.35963489       1.35816246       1.35708532       0.00000000
Si      -2.71032454      -0.00267156       2.71818162       0.00000000
Si      -2.71483687       2.71474479      -0.00051423       0.00000000
Si       2.71488796      -0.00048870      -2.71495911       0.00000000
Si      -0.00004667      -2.71495126      -2.71509624       0.00000000
Si       2.71509973       2.71533123      -0.00013713       0.00000000
Si      -2.71556992      -0.00034209      -2.71495911       0.00000000
