10
Lattice="16.28999089631971 0.0 0.0 0.0 16.28999089631971 0.0 0.0 0.0 34.281931910070035" Properties=species:S:1:pos:R:3:initial_magmoms:R:1 pbc="T T T"
Si       1.29121056       1.45916046      -1.38313960       0.00000000
Si      -2.29443021       0.50060799      -0.47459933       0.00000000
Si       1.52023167      -1.88814132      -0.08779608       0.00000000
Si       0.26424009      -0.81575433       2.41800885       0.00000000
Si       3.33122355      -0.34595073       0.28532868       0.00000000
Si      -2.89611765      -1.79727570      -0.26667930       0.00000000
Si       2.45159613       0.18099819       2.52822533       0.00000000
Si       1.24098849       0.41891364      -3.41523653       0.00000000
Si      -1.46878785      -2.93930244      -1.92568576       0.00000000
Si       0.36474939       3.56337234      -1.33469920       0.00000000
