10
Lattice="16.28999089631971 0.0 0.0 0.0 16.28999089631971 0.0 0.0 0.0 34.281931910070035" Properties=species:S:1:pos:R:3:initial_magmoms:R:1 pbc="T T T"
Si       1.26576558      -1.42169346       1.40323225       0.00000000
Si       1.37562534       1.08442530      -1.60613824       0.00000000
Si      -1.44366867       1.29248118       1.39846363       0.00000000
Si      -1.28519955      -1.29961620      -1.54957302       0.00000000
Si       0.54547065      -1.98751032      -2.98423839       0.00000000
Si      -0.52339770       1.90801512      -3.04478032       0.00000000
Si      -2.57162085      -2.66841603      -0.08722357       0.00000000
Si       2.55401136       2.69475696      -0.17860211       0.00000000
Si       2.63192643      -0.06213006       2.76355721       0.00000000
Si      -0.08653248       2.65645917       2.76695112       0.00000000
