10
Lattice="16.28999089631971 0.0 0.0 0.0 16.28999089631971 0.0 0.0 0.0 34.281931910070035" Properties=species:S:1:pos:R:3:initial_magmoms:R:1 pbc="T T T"
Si       0.09751194       2.23564679      -0.77573199       0.00000000
Si      -1.27597941      -1.62504153      -1.17484246       0.00000000
Si       2.13447870      -0.72747882       0.76321908       0.00000000
Si      -1.61720604       0.40369017       1.73380968       0.00000000
Si       1.85534955      -0.70902225      -2.37323663       0.00000000
Si       2.01919437       0.25044246       3.00803551       0.00000000
Si      -0.86319081       2.14846271      -2.90601243       0.00000000
Si      -3.54559995      -1.17605655      -0.66099030       0.00000000
Si      -1.35026181       3.53985677       0.55807588       0.00000000
Si       0.15367986       0.24516450      -3.83210505       0.00000000
