10
Lattice="16.28999089631971 0.0 0.0 0.0 16.28999089631971 0.0 0.0 0.0 34.281931910070035" Properties=species:S:1:pos:R:3:initial_magmoms:R:1 pbc="T T T"
Si      -1.31435865      -1.32615261       1.40271459       0.00000000
Si       0.38905407      -0.84393603      -2.15619759       0.00000000
Si      -1.28330991       2.03598936       0.38724892       0.00000000
Si       2.29763675      -0.38706669       0.77357223       0.00000000
Si       0.40345443       3.30684135      -0.50600160       0.00000000
Si      -0.43590411      -0.33708897       3.34982657       0.00000000
Si       1.76930644      -1.13854068       2.96134350       0.00000000
Si      -0.16684218       0.92326833      -3.56326599       0.00000000
Si      -0.66709179      -2.90017386      -2.47076878       0.00000000
Si      -0.69445899      -3.60447201       1.27679699       0.00000000
