10
Lattice="16.28999089631971 0.0 0.0 0.0 16.28999089631971 0.0 0.0 0.0 34.281931910070035" Properties=species:S:1:pos:R:3:initial_magmoms:R:1 pbc="T T T"
Si       0.98458389      -0.38138148       2.06055095       0.00000000
Si      -2.22472041      -0.58867173       0.43390665       0.00000000
Si       0.19015317       2.27983437      -0.58419873       0.00000000
Si       1.46487825      -1.49732793      -1.21515804       0.00000000
Si       3.15819117       0.25602993       1.36281040       0.00000000
Si      -1.85235219      -2.91081123       0.30648064       0.00000000
Si      -1.81877850       2.97592236      -1.56346266       0.00000000
Si      -3.48505816      -0.45079317      -1.55646914       0.00000000
Si       3.70708272      -0.83355930      -0.68162803       0.00000000
Si       1.72336797       2.58250257      -2.33148121       0.00000000
