10
Lattice="16.28999089631971 0.0 0.0 0.0 16.28999089631971 0.0 0.0 0.0 34.281931910070035" Properties=species:S:1:pos:R:3:initial_magmoms:R:1 pbc="T T T"
Si       0.27984591       2.25878769      -0.45283029       0.00000000
Si       0.81907749      -1.17967293      -1.82969629       0.00000000
Si       1.29650481      -0.97389765       1.67991845       0.00000000
Si      -2.18048166      -0.69629976       0.50672152       0.00000000
Si       0.17397720      -3.24978984      -0.85804295       0.00000000
Si      -1.79727570      -3.02153436       0.45543572       0.00000000
Si       3.42438606      -0.17523153       1.23624144       0.00000000
Si      -1.87574463       3.11907888      -0.32081050       0.00000000
Si      -3.40635140      -0.36522180      -1.46870735       0.00000000
Si       1.65956004       3.27777606       1.20648470       0.00000000
