10
Lattice="16.28999089631971 0.0 0.0 0.0 16.28999089631971 0.0 0.0 0.0 34.281931910070035" Properties=species:S:1:pos:R:3:initial_magmoms:R:1 pbc="T T T"
Si       1.51328236      -0.55379484       1.76603471       0.00000000
Si       0.66978778       2.27716281      -0.39911047       0.00000000
Si       0.78557548      -1.19837385      -1.94474652       0.00000000
Si      -2.52135058       0.01259217       0.68162803       0.00000000
Si       0.96645964      -3.01094586       1.92722844       0.00000000
Si      -3.11619622       1.91974392      -0.57504545       0.00000000
Si      -1.30520434       3.46193451      -0.20192069       0.00000000
Si      -2.88430807      -2.41105032       0.12711747       0.00000000
Si       1.21502875       1.36363590       3.40292931       0.00000000
Si       2.96605714      -0.50207409      -2.45146804       0.00000000
