10
Lattice="16.28999089631971 0.0 0.0 0.0 16.28999089631971 0.0 0.0 0.0 34.281931910070035" Properties=species:S:1:pos:R:3:initial_magmoms:R:1 pbc="T T T"
Si      -1.35652206      -1.35557235       1.35715388       0.00000000
Si       1.35689184      -1.35726651      -1.35770239       0.00000000
Si      -1.35764770       1.35718506      -1.35735957       0.00000000
Si       1.35824391       1.35980775       1.35715388       0.00000000
Si      -0.00144981       2.71230129       2.71454773       0.00000000
Si       0.00109143       2.71327869      -2.71372496       0.00000000
Si       0.00009774      -2.71316466      -2.71502768       0.00000000
Si      -2.71499633      -0.00045612      -2.71358784       0.00000000
Si      -2.71470398      -2.71472850      -0.00010285       0.00000000
Si       2.71476108      -2.71480995       0.00000000       0.00000000
