10
Lattice="16.28999089631971 0.0 0.0 0.0 16.28999089631971 0.0 0.0 0.0 34.281931910070035" Properties=species:S:1:pos:R:3:initial_magmoms:R:1 pbc="T T T"
Si      -1.35741801      -1.35696514       1.35701675       0.00000000
Si       1.35808101       1.35767376       1.35725672       0.00000000
Si       1.35799956      -1.35640151      -1.36164481       0.00000000
Si      -1.35903723       1.35770634      -1.36411311       0.00000000
Si       2.71450044       2.71472850      -0.00109702       0.00000000
Si      -2.71493463      -2.71446256      -0.00013713       0.00000000
Si      -2.71488796       0.00048870       2.71495911       0.00000000
Si       0.00061902      -2.71503482       2.71509624       0.00000000
Si       2.71533123       0.00035838       2.71485627       0.00000000
Si       0.00021177       2.71581993       2.71482199       0.00000000
