10
Lattice="16.28999089631971 0.0 0.0 0.0 16.28999089631971 0.0 0.0 0.0 34.281931910070035" Properties=species:S:1:pos:R:3:initial_magmoms:R:1 pbc="T T T"
Si      -2.29067441       0.51934149       0.19050480       0.00000000
Si       0.03201148       0.99748557      -2.13549130       0.00000000
Si       0.05033773      -2.35304163       0.24672720       0.00000000
Si       1.58094450       1.13125905       1.39462405       0.00000000
Si       0.44886443       3.28207662      -1.63980857       0.00000000
Si      -2.20821443      -2.86327701       0.82204690       0.00000000
Si       1.27620747      -2.68411959       2.22215607       0.00000000
Si       1.95642900       3.16488636       0.17590069       0.00000000
Si      -3.27063194      -0.35258076      -1.75441313       0.00000000
Si      -3.24491003      -0.87089598       1.77429666       0.00000000
