10
Lattice="16.28999089631971 0.0 0.0 0.0 16.28999089631971 0.0 0.0 0.0 34.281931910070035" Properties=species:S:1:pos:R:3:initial_magmoms:R:1 pbc="T T T"
Si       1.77056010       0.80894511       1.54494153       0.00000000
Si       0.29825361      -1.91743074      -1.63689460       0.00000000
Si      -1.82124643       1.77544710       0.24646087       0.00000000
Si      -0.84623455      -1.92482640       1.48359055       0.00000000
Si       0.92453895       1.61495802      -2.09147327       0.00000000
Si      -2.14587984      -0.52566201       2.91661039       0.00000000
Si       0.56234709       2.19480057       2.94895198       0.00000000
Si       2.63164950      -1.73736108      -2.08430834       0.00000000
Si      -1.21502875      -1.36363590      -3.40292931       0.00000000
Si      -0.69914725       3.49733268       1.49550696       0.00000000
