10
Lattice="16.28999089631971 0.0 0.0 0.0 16.28999089631971 0.0 0.0 0.0 34.281931910070035" Properties=species:S:1:pos:R:3:initial_magmoms:R:1 pbc="T T T"
Si      -1.35419422       1.35858600      -1.36226189       0.00000000
Si       1.35974259      -1.35701564      -1.36205620       0.00000000
Si      -1.38128937      -1.34434854       1.36987248       0.00000000
Si       1.37122704       1.37163429       1.38276250       0.00000000
Si       0.09488925      -2.59756267       2.64783505       0.00000000
Si      -2.71257362      -2.71374200      -0.00075420       0.00000000
Si       2.71437012      -2.71329742      -0.00366817       0.00000000
Si      -2.71512665       2.71583622      -0.00353104       0.00000000
Si       2.71766070       2.71402803      -0.00493660       0.00000000
Si      -2.71382911       0.00042354      -2.71934720       0.00000000
