10
Lattice="16.28999089631971 0.0 0.0 0.0 16.28999089631971 0.0 0.0 0.0 34.281931910070035" Properties=species:S:1:pos:R:3:initial_magmoms:R:1 pbc="T T T"
Si       1.33128424       1.36939346       1.37062669       0.00000000
Si      -1.35838602       1.35547691      -1.36150769       0.00000000
Si       1.35713810      -1.35853713      -1.36133628       0.00000000
Si      -1.36034082      -1.35280305       1.39712663       0.00000000
Si       0.14234361      -2.66357790       2.73117448       0.00000000
Si      -2.71158003       2.71149398      -0.00041138       0.00000000
Si       2.71257362       2.71374200       0.00075420       0.00000000
Si       2.71249217      -2.71891503      -0.00425096       0.00000000
Si       2.71425149      -0.00135799      -2.71845587       0.00000000
Si      -0.00125549       2.71416554      -2.71859300       0.00000000
