10
Lattice="16.28999089631971 0.0 0.0 0.0 16.28999089631971 0.0 0.0 0.0 34.281931910070035" Properties=species:S:1:pos:R:3:initial_magmoms:R:1 pbc="T T T"
Si       1.47617862      -1.25321413       1.27796257       0.00000000
Si      -1.33128424      -1.36939346      -1.37062669       0.00000000
Si       1.38128937       1.34434854      -1.36987248       0.00000000
Si      -1.38422224       1.35114147       1.57450145       0.00000000
Si      -0.29884657      -2.13259625       2.73971068       0.00000000
Si       0.54996180       2.05739442       2.96422318       0.00000000
Si       2.46403680       0.33979311       2.70923403       0.00000000
Si      -2.66922631       2.69257410      -0.00884474       0.00000000
Si      -2.69162506      -2.72219651       0.02649995       0.00000000
Si      -2.68967026      -0.01391655      -2.73213437       0.00000000
