10
Lattice="16.28999089631971 0.0 0.0 0.0 16.28999089631971 0.0 0.0 0.0 34.281931910070035" Properties=species:S:1:pos:R:3:initial_magmoms:R:1 pbc="T T T"
Si       1.23744737      -1.41522633      -1.37631749       0.00000000
Si      -1.50268443       1.31077485      -1.33404784       0.00000000
Si      -0.81687543      -1.80046854       1.41025662       0.00000000
Si       0.89009407       1.90037511       1.37916289       0.00000000
Si       0.02137443      -0.05712903       2.74958389       0.00000000
Si      -2.64803433      -2.59708212       0.09280124       0.00000000
Si       2.58985946      -2.70405855       0.09749787       0.00000000
Si       2.57014856      -0.05533713      -2.73542544       0.00000000
Si      -0.14234361       2.66357790      -2.73117448       0.00000000
Si       2.66511926       2.77975722      -0.08258522       0.00000000
