10
Lattice="16.28999089631971 0.0 0.0 0.0 16.28999089631971 0.0 0.0 0.0 34.281931910070035" Properties=species:S:1:pos:R:3:initial_magmoms:R:1 pbc="T T T"
Si      -0.52833031      -0.75147399       2.18777127       0.00000000
Si       1.29164387       1.98521343      -0.19311023       0.00000000
Si       0.94623071      -1.91791944      -1.14847964       0.00000000
Si      -2.29763675       0.38706669      -0.77357223       0.00000000
Si      -1.90858268      -0.45686934      -2.92976982       0.00000000
Si      -0.94518327      -3.03606504       1.69208854       0.00000000
Si       0.14514390      -1.50918705      -3.30882535       0.00000000
Si      -0.19178380       3.64285518       0.30277819       0.00000000
Si      -2.73354086       0.04997772       2.57625434       0.00000000
Si      -3.61199540      -0.93908592       0.62914237       0.00000000
