10
Lattice="10.86 0.0 0.0 0.0 10.86 0.0 0.0 0.0 10.86" Properties=species:S:1:pos:R:3:initial_magmoms:R:1 pbc="T T T"
Si       1.29550026      -1.29550026      -1.39299048       0.00000000
Si      -1.30465524       1.30465524      -1.46825028       0.00000000
Si       0.02427210       2.69072790       2.66728116       0.00000000
Si      -2.69072790      -0.02427210       2.66728116       0.00000000
Si      -2.69072790       2.69072790      -0.04771884       0.00000000
Si       2.73927210      -0.02427210       2.66728116       0.00000000
Si       0.02427210      -2.73927210       2.66728116       0.00000000
Si       2.73927210       2.69072790      -0.04771884       0.00000000
Si      -2.69072790      -2.73927210      -0.04771884       0.00000000
Si       0.02427210       2.69072790      -2.76271884       0.00000000
