10
Lattice="16.2900001489832 0.0 0.0 0.0 16.2900001489832 0.0 0.0 0.0 29.31082521633016" Properties=species:S:1:pos:R:3:initial_magmoms:R:1 pbc="T T T"
Si       1.32458878       1.30346065      -1.47160860       0.00000000
Si      -1.42089526      -1.33048576      -1.37118971       0.00000000
Si       1.35576784      -1.37459908       1.39833154       0.00000000
Si      -1.41602455       1.34337115       1.37268457       0.00000000
Si       2.58960503       2.69819580      -0.05352157       0.00000000
Si       2.65155590       0.11797218       2.69899941       0.00000000
Si       2.63143775      -2.72789084      -0.09775160       0.00000000
Si      -2.74053514      -2.69407280       0.05255431       0.00000000
Si      -2.77909520       2.67634603      -0.06524590       0.00000000
Si      -0.06900444       2.63667336      -2.82603252       0.00000000
