10
Lattice="16.2900001489832 0.0 0.0 0.0 16.2900001489832 0.0 0.0 0.0 29.31082521633016" Properties=species:S:1:pos:R:3:initial_magmoms:R:1 pbc="T T T"
Si      -1.83864254       1.05213853       1.02098397       0.00000000
Si       1.34475580       1.76850758      -0.79619926       0.00000000
Si      -0.65241451      -1.02364732      -2.08508417       0.00000000
Si       1.14025114      -1.27149967       1.71101942       0.00000000
Si       1.83997181       0.84791080      -2.92478069       0.00000000
Si      -0.96834277       1.35378046       3.20144557       0.00000000
Si       0.50976297      -3.03212289      -2.11363292       0.00000000
Si      -0.10127493       3.57421663      -1.20250592       0.00000000
H       -3.36499275      -1.62043147       0.63818460       0.00000000
H       -2.50960973      -2.84193714       0.53673983       0.00000000
