10
Lattice="16.2900001489832 0.0 0.0 0.0 16.2900001489832 0.0 0.0 0.0 29.31082521633016" Properties=species:S:1:pos:R:3:initial_magmoms:R:1 pbc="T T T"
Si      -0.79770502      -0.67880594      -2.09285154       0.00000000
Si       1.45538119      -1.65694388       0.84236381       0.00000000
Si      -1.68489101       0.52688376       1.60277454       0.00000000
Si       0.74461591       2.20576376      -0.60389093       0.00000000
Si       1.40274820       2.74491390       1.64427867       0.00000000
Si      -0.35904789       1.86533534       3.01226178       0.00000000
Si      -3.00771069       1.88779925       0.28308395       0.00000000
Si      -0.67670290       1.36739890      -3.28055549       0.00000000
Si      -1.54215802       3.09250992      -1.13488584       0.00000000
Si      -2.75607255      -1.82224503      -1.65198742       0.00000000
