10
Lattice="16.2900001489832 0.0 0.0 0.0 16.2900001489832 0.0 0.0 0.0 29.31082521633016" Properties=species:S:1:pos:R:3:initial_magmoms:R:1 pbc="T T T"
Si       1.40949226       1.34434855       1.29923164       0.00000000
Si       1.36513459      -1.35898512      -1.33765813       0.00000000
Si      -1.36669843      -1.38963312       1.34211338       0.00000000
Si      -1.30349323       1.36401058      -1.43860461       0.00000000
Si      -0.01526373       2.67454109       2.61232730       0.00000000
Si       0.05688468      -2.74463697       2.62164814       0.00000000
Si      -2.66522321       2.71559189      -0.06254930       0.00000000
Si       2.74812303       2.66056427      -0.12111233       0.00000000
Si      -2.63171468      -2.78436828      -0.07597366       0.00000000
Si      -2.68470605      -0.05875803      -2.75708760       0.00000000
