10
Lattice="16.2900001489832 0.0 0.0 0.0 16.2900001489832 0.0 0.0 0.0 29.31082521633016" Properties=species:S:1:pos:R:3:initial_magmoms:R:1 pbc="T T T"
Si       1.38489273       0.98973154       1.63484059       0.00000000
Si       0.77571189      -0.14649597      -2.22486750       0.00000000
Si       1.12731525      -2.07606278       0.26212671       0.00000000
Si      -2.38663326       0.49449924       0.43684854       0.00000000
Si      -0.52676811       1.75531268       2.77743518       0.00000000
Si       2.46417040       2.45850311       0.23000205       0.00000000
Si      -0.58232352      -3.38914756      -0.71876006       0.00000000
Si      -2.27520966       0.12940776       2.76644362       0.00000000
Si      -1.01748033      -1.03270456      -3.46184294       0.00000000
Si      -2.32399821      -2.35493129      -1.99339991       0.00000000
