10
Lattice="16.2900001489832 0.0 0.0 0.0 16.2900001489832 0.0 0.0 0.0 29.31082521633016" Properties=species:S:1:pos:R:3:initial_magmoms:R:1 pbc="T T T"
Si      -1.90995365      -0.16105923       1.36195680       0.00000000
Si       0.00024435       2.33598602      -0.31110510       0.00000000
Si       1.91985797      -1.16794414       0.74235527       0.00000000
Si      -0.42738444      -1.01260270      -2.17562531       0.00000000
Si       3.36712674       0.04737132      -0.67552659       0.00000000
Si      -2.68947902      -2.24524583       0.80821669       0.00000000
Si      -2.49950504      -2.09371788      -1.59266231       0.00000000
Si      -3.30385638       1.49231062       0.36996124       0.00000000
Si       1.66291580       2.88215715      -1.78435511       0.00000000
Si       1.91560628      -3.22909831      -0.51340841       0.00000000
