10
Lattice="16.2900001489832 0.0 0.0 0.0 16.2900001489832 0.0 0.0 0.0 29.31082521633016" Properties=species:S:1:pos:R:3:initial_magmoms:R:1 pbc="T T T"
Si      -1.36205578       1.89263738       0.35126093       0.00000000
Si       2.19095615       0.90352486       0.25626454       0.00000000
Si      -0.29942649      -0.83279368      -2.25751976       0.00000000
Si       0.06812478      -1.65775187       1.77714464       0.00000000
Si       3.46814103      -0.98528437       1.02086673       0.00000000
Si       2.15842502       2.23700798       2.16841485       0.00000000
Si       2.03546810      -2.95702599       1.22322867       0.00000000
Si      -0.64764154       3.45957249      -1.42541474       0.00000000
Si       2.03361104      -1.40849857      -3.00515098       0.00000000
Si      -1.65307664       2.25741935       2.76952125       0.00000000
