10
Lattice="16.2900001489832 0.0 0.0 0.0 16.2900001489832 0.0 0.0 0.0 29.31082521633016" Properties=species:S:1:pos:R:3:initial_magmoms:R:1 pbc="T T T"
Si      -1.85932433      -0.85341682       1.23283090       0.00000000
Si       0.86343517       1.72696808       1.42667804       0.00000000
Si      -0.52745391       1.05943645      -2.09971028       0.00000000
Si       2.04981959      -1.81239284      -0.06181653       0.00000000
Si       1.53639136       2.16295364      -2.17958227       0.00000000
Si      -0.48679407      -2.20942901       2.66146396       0.00000000
Si       1.34959393       3.33472593      -0.17782878       0.00000000
Si       2.34795917       0.57581893       2.82717858       0.00000000
Si       0.96946678      -3.49207104       1.24868512       0.00000000
Si       3.60509106      -0.78698620       1.41580665       0.00000000
