10
Lattice="16.2900001489832 0.0 0.0 0.0 16.2900001489832 0.0 0.0 0.0 29.31082521633016" Properties=species:S:1:pos:R:3:initial_magmoms:R:1 pbc="T T T"
Si       1.59953140       1.23823386       1.11076303       0.00000000
Si      -0.53838450      -1.41884761       1.75612878       0.00000000
Si       1.38797317      -1.45822054      -1.23847030       0.00000000
Si      -1.72540424       1.35465198      -1.05184827       0.00000000
Si      -2.21433230      -2.61463136       0.47715092       0.00000000
Si      -0.10720449       2.40123887      -2.59412527       0.00000000
Si       2.68301189      -2.36596451       0.57074039       0.00000000
Si      -3.22480101       1.44607472       1.07814008       0.00000000
Si      -2.67960728      -0.23282157      -2.56478514       0.00000000
Si       3.40154751      -0.37814466       1.58694670       0.00000000
