10
Lattice="16.2900001489832 0.0 0.0 0.0 16.2900001489832 0.0 0.0 0.0 29.31082521633016" Properties=species:S:1:pos:R:3:initial_magmoms:R:1 pbc="T T T"
Si      -0.22911885       0.65795311       2.26856994       0.00000000
Si      -2.09373743      -0.18891513      -1.13960488       0.00000000
Si       0.76698208       2.03548439      -1.02444265       0.00000000
Si       1.69720625      -1.61365483      -0.60529785       0.00000000
H       -0.96497074      -2.50455494       0.93138078       0.00000000
Si       1.03123846      -1.85673422      -2.83951550       0.00000000
H       -1.64890640       3.02884860       0.92082888       0.00000000
H        1.88701733      -2.06435027       2.22524854       0.00000000
Si      -2.02512395       2.15060582       2.11084839       0.00000000
Si       1.63183447       2.06822729       2.51261187       0.00000000
