10
Lattice="16.2900001489832 0.0 0.0 0.0 16.2900001489832 0.0 0.0 0.0 29.31082521633016" Properties=species:S:1:pos:R:3:initial_magmoms:R:1 pbc="T T T"
H        0.37621755       0.87824278      -1.19001950       0.00000000
Si      -0.16480593       1.36324495       1.88744128       0.00000000
Si       1.79600510      -1.49265271       0.15772155       0.00000000
Si      -2.08834544      -1.06899868      -0.20256711       0.00000000
H       -1.64097316       1.62901630      -1.35662223       0.00000000
Si       1.89903935       2.46676214       1.80756928       0.00000000
Si       2.02512395      -2.15060582      -2.11084839       0.00000000
Si       3.65695842      -0.08237853       0.40176348       0.00000000
Si      -1.73164331      -2.81396721      -1.69908992       0.00000000
Si      -2.53648334      -2.31961457       1.76673930       0.00000000
