10
Lattice="16.2900001489832 0.0 0.0 0.0 16.2900001489832 0.0 0.0 0.0 29.31082521633016" Properties=species:S:1:pos:R:3:initial_magmoms:R:1 pbc="T T T"
Si       0.16480593      -1.36324495      -1.88744128       0.00000000
Si       2.06384528       1.10351719      -0.07987200       0.00000000
Si       0.52745391      -1.05943645       2.09971028       0.00000000
Si      -0.98420923       2.22223295      -0.38233040       0.00000000
H        0.54102348      -0.48500217      -3.07746078       0.00000000
Si       1.87704785       2.27528948       1.92188150       0.00000000
H       -1.47616723       0.26577135      -3.24406351       0.00000000
Si       0.92704762       3.12513879      -1.49479346       0.00000000
Si      -0.31166028       3.30753792       1.63132329       0.00000000
Si      -1.92353951      -2.43224363      -2.09000839       0.00000000
