10
Lattice="16.2900001489832 0.0 0.0 0.0 16.2900001489832 0.0 0.0 0.0 29.31082521633016" Properties=species:S:1:pos:R:3:initial_magmoms:R:1 pbc="T T T"
Si      -1.34377840      -1.27883017       1.39270679       0.00000000
Si       1.35228178      -1.40905243      -1.35345080       0.00000000
Si      -1.75220129       0.91326628      -1.34095560       0.00000000
Si       1.47333277       1.43190730       1.26620127       0.00000000
Si       1.83844055       0.19870542      -2.95795762       0.00000000
Si      -0.35026758       1.23095386      -3.24851583       0.00000000
Si      -2.64947078      -2.54088164      -0.13728897       0.00000000
Si       0.05103657      -2.59186934       2.70161100       0.00000000
Si      -2.62293437       2.75094120      -0.07106410       0.00000000
Si       2.83680579      -2.56020158       0.04704974       0.00000000
