10
Lattice="16.2900001489832 0.0 0.0 0.0 16.2900001489832 0.0 0.0 0.0 29.31082521633016" Properties=species:S:1:pos:R:3:initial_magmoms:R:1 pbc="T T T"
Si       0.96848938       1.67591522      -1.32992007       0.00000000
Si      -2.29993625       0.45703224       0.37995623       0.00000000
Si       0.08513154      -1.88129954      -1.45194104       0.00000000
Si       1.27172773      -0.54698563       1.97127024       0.00000000
H        3.04398201       0.37493064       0.41650683       0.00000000
Si      -1.43190730      -3.15949440      -0.20567406       0.00000000
Si       1.97275160      -2.70428663       1.22721494       0.00000000
Si       3.22792869       1.49170789      -0.60858066       0.00000000
Si      -3.12451977      -1.76288753       0.62440851       0.00000000
Si      -0.64229842      -0.93587680      -3.47356727       0.00000000
