10
Lattice="16.2900001489832 0.0 0.0 0.0 16.2900001489832 0.0 0.0 0.0 29.31082521633016" Properties=species:S:1:pos:R:3:initial_magmoms:R:1 pbc="T T T"
Si      -1.36513459       1.35898512       1.33765813       0.00000000
Si       1.34348518       1.32591642      -1.41244763       0.00000000
Si      -1.23333220      -1.31291618      -1.52825177       0.00000000
Si       1.43391097      -1.38428349       1.32652002       0.00000000
Si       0.63389278      -2.09296365      -2.83397869       0.00000000
Si       2.46174482      -0.33891508      -2.65750993       0.00000000
Si       0.04435767       2.70333367       2.63688977       0.00000000
Si      -2.66862782       2.72299570      -0.10094648       0.00000000
Si      -2.64231947      -2.75523361      -0.18342714       0.00000000
Si      -2.73183302      -0.03064801       2.67977151       0.00000000
