10
Lattice="16.2900001489832 0.0 0.0 0.0 16.2900001489832 0.0 0.0 0.0 29.31082521633016" Properties=species:S:1:pos:R:3:initial_magmoms:R:1 pbc="T T T"
Si       1.38162007      -1.41333670      -1.32024750       0.00000000
Si      -1.35884665      -1.39461949       1.36421374       0.00000000
Si       1.41672502       1.33348312       1.38467269       0.00000000
Si      -1.43391097       1.38428349      -1.32652002       0.00000000
Si      -2.74216089      -0.00136836       2.63278625       0.00000000
Si       2.68037291      -0.06760350      -2.73522173       0.00000000
Si       0.06199974       2.79225264       2.63498457       0.00000000
Si      -2.72363916      -2.70894557      -0.05495780       0.00000000
Si      -0.09042579       2.71019990      -2.73896765       0.00000000
Si       2.74530486       2.70883154      -0.00612596       0.00000000
