10
Lattice="16.2900001489832 0.0 0.0 0.0 16.2900001489832 0.0 0.0 0.0 29.31082521633016" Properties=species:S:1:pos:R:3:initial_magmoms:R:1 pbc="T T T"
Si      -1.02455956      -0.84482710       1.99416199       0.00000000
Si       2.15441768      -0.99985903       0.40334627       0.00000000
Si       0.18886626      -1.70392913      -1.69741920       0.00000000
Si      -0.72638740       2.06872088      -1.18644358       0.00000000
H       -2.37843776       0.28549203      -0.87032633       0.00000000
Si      -2.39436938      -2.39035715       0.67822318       0.00000000
Si      -3.56809647      -0.58030780      -0.54450720       0.00000000
Si       2.39581919      -2.53361142      -1.41908360       0.00000000
Si      -1.17501400      -3.50262208      -1.06538987       0.00000000
Si       3.78382494       0.62601656      -0.29665486       0.00000000
