10
Lattice="16.2900001489832 0.0 0.0 0.0 16.2900001489832 0.0 0.0 0.0 29.31082521633016" Properties=species:S:1:pos:R:3:initial_magmoms:R:1 pbc="T T T"
Si       0.56050633      -1.04739814      -2.05172845       0.00000000
Si       0.77988376      -1.88173937       1.28834999       0.00000000
Si       1.84466333       1.59474214       0.07998924       0.00000000
Si      -2.12371103       1.05798664       1.08001598       0.00000000
H       -0.62403733      -1.64838512      -2.73091890       0.00000000
H        1.50509827      -2.86655133       0.37511994       0.00000000
Si      -0.56843956       2.08339328       2.55763916       0.00000000
H        0.31253994       1.66275290      -2.91765816       0.00000000
Si      -0.87922018       2.48419244      -2.44355557       0.00000000
Si       2.25158753      -0.76864366       2.71399189       0.00000000
