10
Lattice="16.2900001489832 0.0 0.0 0.0 16.2900001489832 0.0 0.0 0.0 29.31082521633016" Properties=species:S:1:pos:R:3:initial_magmoms:R:1 pbc="T T T"
Si      -0.19766286      -2.06135291      -1.10493018       0.00000000
Si      -2.13291488      -0.25241355       1.05173103       0.00000000
Si      -0.40617486       1.85241737      -1.48025530       0.00000000
Si       2.25238574      -0.10715562       0.97898156       0.00000000
H        0.44735598       2.71248050       0.73156889       0.00000000
Si       1.68047642      -2.14584588      -2.40363422       0.00000000
Si      -1.73841995       0.13509297       3.30810767       0.00000000
Si      -1.81710065       0.91970083      -3.16111388       0.00000000
Si      -3.41009976       1.63639567       0.28712884       0.00000000
Si      -0.16154793      -3.78960789       0.50335480       0.00000000
