10
Lattice="16.2900001489832 0.0 0.0 0.0 16.2900001489832 0.0 0.0 0.0 29.31082521633016" Properties=species:S:1:pos:R:3:initial_magmoms:R:1 pbc="T T T"
Si       0.65813230       0.53915013       2.24816960       0.00000000
Si      -0.74461591      -2.20576376       0.60389093       0.00000000
Si       0.89428843      -0.36761643      -2.29348414       0.00000000
Si      -2.28677393       0.88674616      -0.53099491       0.00000000
Si      -1.42131880      -0.83836486      -2.67666456       0.00000000
H       -0.87343723       1.59710419      -2.79475787       0.00000000
H        1.29179701       0.93327040      -2.99448184       0.00000000
Si      -1.54232092      -2.88456970      -1.48896061       0.00000000
Si       2.37636893      -1.09353142       2.50447196       0.00000000
Si      -2.42950691      -1.67888000       2.20666548       0.00000000
