10
Lattice="16.2900001489832 0.0 0.0 0.0 16.2900001489832 0.0 0.0 0.0 29.31082521633016" Properties=species:S:1:pos:R:3:initial_magmoms:R:1 pbc="T T T"
Si       1.50485392      -1.17162568       1.32487861       0.00000000
Si      -1.32936175      -1.27307980      -1.43614250       0.00000000
Si      -1.51169572       0.80967817       1.64108379       0.00000000
Si       1.37181349       1.38305359      -1.39935742       0.00000000
Si      -0.37364373       2.76350079       2.06541661       0.00000000
Si       2.61115670       0.44624826       2.69814939       0.00000000
Si       0.09539424      -2.60327234      -2.74923816       0.00000000
Si      -2.86394493      -2.47728548      -0.11205528       0.00000000
Si      -2.57435759       0.16278597      -2.81181677       0.00000000
Si       0.40852062      -2.92490211       2.41946207       0.00000000
