10
Lattice="16.2900001489832 0.0 0.0 0.0 16.2900001489832 0.0 0.0 0.0 29.31082521633016" Properties=species:S:1:pos:R:3:initial_magmoms:R:1 pbc="T T T"
Si      -1.07927767      -1.46877157       1.40483854       0.00000000
Si       1.18314271      -0.47871423      -1.96332701       0.00000000
Si       1.49416768       1.05969709       1.48098807       0.00000000
Si      -1.03542499       2.06061986      -0.66963511       0.00000000
Si       1.14466573       2.84309373      -0.12993489       0.00000000
Si       2.28229418       1.58724874      -1.77031522       0.00000000
Si      -2.46417040      -2.45850311      -0.23000205       0.00000000
Si      -0.57767599      -0.85478518      -3.58412771       0.00000000
Si       0.35844516       1.57705120       3.49429003       0.00000000
Si       0.70666021      -2.71531496       2.66218501       0.00000000
