10
Lattice="16.2900001489832 0.0 0.0 0.0 16.2900001489832 0.0 0.0 0.0 29.31082521633016" Properties=species:S:1:pos:R:3:initial_magmoms:R:1 pbc="T T T"
Si      -0.66596779      -0.24307938      -2.23421765       0.00000000
Si       2.03348072       1.15297363      -0.30796884       0.00000000
Si      -1.69720625       1.61365483       0.60529785       0.00000000
Si       0.66041290      -2.28755585       0.63425695       0.00000000
H        0.18981108      -0.45069543       2.83054639       0.00000000
H        0.58010320       0.26469621      -2.91258739       0.00000000
H       -2.66217698      -0.89090011       1.53667863       0.00000000
Si       1.14267835       3.06115167      -1.35248941       0.00000000
Si      -0.80995510      -2.55107918      -2.46404383       0.00000000
Si       1.21360501      -3.09021303      -1.53137337       0.00000000
