10
Lattice="16.2900001489832 0.0 0.0 0.0 16.2900001489832 0.0 0.0 0.0 29.31082521633016" Properties=species:S:1:pos:R:3:initial_magmoms:R:1 pbc="T T T"
Si       2.09245052      -0.88718599      -0.43201225       0.00000000
H       -1.69016897       1.48970422       0.57540081       0.00000000
Si      -1.44220258      -1.22044681       1.44133052       0.00000000
Si       0.95379580       1.74811250       1.49927802       0.00000000
Si      -0.78307660      -0.21776472      -2.37637515       0.00000000
H       -2.62674623      -1.82143379       0.76214008       0.00000000
H       -0.53481699      -3.09210267       1.10654227       0.00000000
Si       2.70431921       0.45418149      -2.28325466       0.00000000
Si      -2.81655732      -1.37073835      -2.06840631       0.00000000
Si      -2.88192909       2.31114377       1.04950341       0.00000000
