10
Lattice="16.2900001489832 0.0 0.0 0.0 16.2900001489832 0.0 0.0 0.0 29.31082521633016" Properties=species:S:1:pos:R:3:initial_magmoms:R:1 pbc="T T T"
Si       1.87622357      -0.75694418       1.27247086       0.00000000
Si      -0.95887176       2.19038600      -0.04047825       0.00000000
Si      -1.67548516      -1.20592753       1.20740082       0.00000000
Si       0.38340796      -1.11087375      -2.10651039       0.00000000
Si       1.41537947      -3.02917440       0.82899807       0.00000000
Si       0.54507969      -3.33081633      -1.35146353       0.00000000
Si      -1.08490749       2.64033209       2.29952217       0.00000000
Si      -3.64527198      -1.06209172      -0.11935368       0.00000000
Si      -1.51646218      -0.81816037      -3.41852155       0.00000000
Si      -0.60049502      -3.22449150       2.00008278       0.00000000
