10
Lattice="16.2900001489832 0.0 0.0 0.0 16.2900001489832 0.0 0.0 0.0 29.31082521633016" Properties=species:S:1:pos:R:3:initial_magmoms:R:1 pbc="T T T"
Si      -2.09816831       0.68623255      -0.76284354       0.00000000
Si       1.52723638       1.68572180      -0.57537150       0.00000000
Si       1.11379618      -1.91130572      -0.79672685       0.00000000
Si      -0.19934073       0.20838168       2.35248683       0.00000000
H       -0.76191589      -2.58807377       0.79238885       0.00000000
H        0.03380175      -2.82646164      -1.33560637       0.00000000
Si       1.82426825      -2.60682356       1.34680311       0.00000000
Si       0.84582568       3.39237624       0.89066805       0.00000000
Si       1.14302044       2.04618692       2.80733222       0.00000000
Si      -2.14524641       0.11753235      -3.02326507       0.00000000
