10
Lattice="16.2900001489832 0.0 0.0 0.0 16.2900001489832 0.0 0.0 0.0 29.31082521633016" Properties=species:S:1:pos:R:3:initial_magmoms:R:1 pbc="T T T"
Si       1.06909642      -1.82299763      -1.04346538       0.00000000
Si      -1.34400646      -1.33434649       1.43418454       0.00000000
Si       1.54049644       1.33312474       1.28470519       0.00000000
Si      -1.16778124       0.80894512      -1.99225679       0.00000000
Si      -0.77556691      -3.41773977      -1.12345462       0.00000000
Si      -2.89927794      -2.35975313      -0.04343864       0.00000000
Si      -0.11668527       3.06814008      -2.30160324       0.00000000
Si      -2.60113835       0.02845863       2.84555646       0.00000000
Si       0.19298763       2.78357007       2.67466263       0.00000000
Si       0.08167806      -2.70808220       2.78886054       0.00000000
