10
Lattice="16.2900001489832 0.0 0.0 0.0 16.2900001489832 0.0 0.0 0.0 29.31082521633016" Properties=species:S:1:pos:R:3:initial_magmoms:R:1 pbc="T T T"
H        0.29064618       0.20101860       0.62927411       0.00000000
H       -0.31778532      -1.83977633      -0.71137373       0.00000000
H        1.68766031      -1.89776873      -0.15780948       0.00000000
H        2.58818780       1.24928011      -0.07090289       0.00000000
Si      -2.13690593       1.93109807      -0.38499769       0.00000000
Si      -3.01008252      -0.22489974      -0.28616159       0.00000000
Si      -2.28265256      -1.17032248       1.73546465       0.00000000
Si       0.20355984      -2.36097488      -2.04378522       0.00000000
Si       1.72087562      -2.45964341       1.25107395       0.00000000
Si      -1.39929472       2.38689227       1.85748562       0.00000000
