10
Lattice="16.2900001489832 0.0 0.0 0.0 16.2900001489832 0.0 0.0 0.0 29.31082521633016" Properties=species:S:1:pos:R:3:initial_magmoms:R:1 pbc="T T T"
Si      -1.52723638      -1.68572180       0.57537150       0.00000000
Si      -0.68141071       1.70665445       1.46603954       0.00000000
Si      -0.14287959       0.22307526      -2.35817313       0.00000000
Si       2.06174387      -0.55120473       1.13122199       0.00000000
Si      -0.38421594       0.36046512       3.38270372       0.00000000
H       -2.55417428       2.07972803      -0.99818015       0.00000000
Si      -0.41344020      -3.59702751      -0.22135535       0.00000000
Si      -1.72657712      -1.47734011       2.92785833       0.00000000
Si      -3.62540469      -0.99948925      -0.18747204       0.00000000
Si       1.83651833      -0.26652069      -3.41685083       0.00000000
