10
Lattice="16.2900001489832 0.0 0.0 0.0 16.2900001489832 0.0 0.0 0.0 29.31082521633016" Properties=species:S:1:pos:R:3:initial_magmoms:R:1 pbc="T T T"
Si       0.31467393      -1.46766385       1.78450166       0.00000000
Si       2.24209046       0.64132102      -0.15613877       0.00000000
Si      -0.55017847      -1.50040675      -1.75255286       0.00000000
Si      -1.36068742       1.99083350       0.03177293       0.00000000
H        0.03955212       1.42076494      -2.49399950       0.00000000
H       -2.96606694      -0.50704254       0.19271868       0.00000000
H        1.50643405      -2.28910340       1.31039906       0.00000000
Si       0.80167978       0.27482859       3.35925506       0.00000000
Si      -1.54627939      -2.87793804       1.54045973       0.00000000
Si       2.86508523      -0.25058907      -2.23105208       0.00000000
