10
Lattice="16.2900001489832 0.0 0.0 0.0 16.2900001489832 0.0 0.0 0.0 29.31082521633016" Properties=species:S:1:pos:R:3:initial_magmoms:R:1 pbc="T T T"
Si      -1.38331423       1.39325113       1.26857252       0.00000000
Si      -1.36479250      -1.31432608      -1.41917154       0.00000000
Si       1.35884665       1.39461949      -1.36421374       0.00000000
Si       1.27493686      -1.26239356       1.57170507       0.00000000
Si      -0.01655064       2.82411425       2.49185981       0.00000000
Si       2.66139506      -2.66470193       0.15739913       0.00000000
Si       0.04867452      -2.57929346      -2.81770825       0.00000000
Si       2.74046673      -0.01871721      -2.68446124       0.00000000
Si      -2.76506463      -2.67783167      -0.05519228       0.00000000
Si      -0.07506432       2.77890298      -2.69073375       0.00000000
