10
Lattice="16.2900001489832 0.0 0.0 0.0 16.2900001489832 0.0 0.0 0.0 29.31082521633016" Properties=species:S:1:pos:R:3:initial_magmoms:R:1 pbc="T T T"
H       -1.28963044       0.20393451       0.77802654       0.00000000
Si      -0.26788905      -2.07922304      -1.03481868       0.00000000
Si       1.72784774       0.20455353       1.56563773       0.00000000
Si      -0.03611493       1.72825499      -1.60828498       0.00000000
H       -0.45183573      -3.19600029      -0.00973119       0.00000000
Si      -2.52732836      -1.89501572      -1.75615809       0.00000000
Si      -2.02007405       1.26421641      -2.77476789       0.00000000
Si       3.32500080       1.47846412       0.49579261       0.00000000
Si      -3.53755272       0.21360457      -1.32288547       0.00000000
Si       1.84202435       1.64376201      -2.90698902       0.00000000
