10
Lattice="16.2900001489832 0.0 0.0 0.0 16.2900001489832 0.0 0.0 0.0 29.31082521633016" Properties=species:S:1:pos:R:3:initial_magmoms:R:1 pbc="T T T"
Si      -1.62940726      -1.62587559       0.70000113       0.00000000
Si       2.01810296      -0.70695831       1.12228219       0.00000000
Si       0.28737189      -0.48644710      -2.35447997       0.00000000
Si      -0.58139011       2.34544725      -0.17689083       0.00000000
H       -0.93636550       3.29961772       1.04103258       0.00000000
Si      -1.38800575      -3.15962798      -1.12242874       0.00000000
Si       1.53919324       3.18731446      -0.94289994       0.00000000
Si       0.44010693      -2.76726703      -2.54541068       0.00000000
Si      -3.78382494      -0.62601656       0.29665486       0.00000000
Si       2.24024969      -3.08003504       0.96517616       0.00000000
