10
Lattice="16.2900001489832 0.0 0.0 0.0 16.2900001489832 0.0 0.0 0.0 29.31082521633016" Properties=species:S:1:pos:R:3:initial_magmoms:R:1 pbc="T T T"
Si      -0.11142360       0.36509148      -2.32959508       0.00000000
Si       0.34878519      -2.35350917       0.05237844       0.00000000
Si       1.74844155       1.62590491       0.01099156       0.00000000
Si      -1.07953831       0.80114221       2.03241262       0.00000000
Si       2.27520966      -0.12940776      -2.76644362       0.00000000
Si       0.90637561       0.65503720       3.43042174       0.00000000
Si       0.62558488       3.48855240      -0.99864913       0.00000000
Si       2.24865533      -2.64622256       1.36438960       0.00000000
Si      -1.49406994      -3.31298855       1.10674745       0.00000000
Si       2.15213871       2.25008885       2.21636736       0.00000000
