10
Lattice="16.2900001489832 0.0 0.0 0.0 16.2900001489832 0.0 0.0 0.0 29.31082521633016" Properties=species:S:1:pos:R:3:initial_magmoms:R:1 pbc="T T T"
Si       0.46159344      -2.22873266      -0.09256359       0.00000000
Si       1.65571562       1.08460450      -1.23378057       0.00000000
Si      -1.89918596       0.29079279      -1.36951900       0.00000000
Si      -0.23926752       0.54582904       2.31136374       0.00000000
Si       0.47853504       3.07970598      -1.13602896       0.00000000
Si      -1.83027926       2.62544303      -1.23782546       0.00000000
Si      -1.49108887      -3.12793252       0.89978371       0.00000000
Si       1.06513795      -2.76165513      -2.32590191       0.00000000
Si      -3.78296157      -0.71071642      -0.41102570       0.00000000
Si      -2.35985087      -0.29603817       3.07737285       0.00000000
