10
Lattice="16.2900001489832 0.0 0.0 0.0 16.2900001489832 0.0 0.0 0.0 29.31082521633016" Properties=species:S:1:pos:R:3:initial_magmoms:R:1 pbc="T T T"
Si       0.56577744      -2.26566046      -0.32329840       0.00000000
Si       1.48377629       1.83760976       0.02793322       0.00000000
Si      -1.81643276       0.66406186      -1.41779393       0.00000000
Si      -0.21566331       3.30455685       0.85745888       0.00000000
Si       2.00996773       0.35559441       2.80932535       0.00000000
Si      -1.66472399       2.98128180      -0.97241594       0.00000000
Si      -1.33752304      -3.23021092       0.64738820       0.00000000
Si      -0.89705773      -2.48782023       2.84652079       0.00000000
Si       0.74367760      -2.80737627      -2.58978727       0.00000000
Si      -3.93701611      -0.17780535      -0.65178482       0.00000000
