10
Lattice="16.2900001489832 0.0 0.0 0.0 16.2900001489832 0.0 0.0 0.0 29.31082521633016" Properties=species:S:1:pos:R:3:initial_magmoms:R:1 pbc="T T T"
Si       0.16816167      -2.28517751      -0.58882517       0.00000000
Si       0.85579516       1.66250855      -1.47072928       0.00000000
Si       1.00945954       0.58435489       2.15935780       0.00000000
Si      -2.41955372       0.02684592      -0.48740971       0.00000000
Si      -0.74440414      -2.97867540       1.43535111       0.00000000
Si      -1.82234603      -1.38596950       2.80108022       0.00000000
Si      -2.56850948       2.19623411      -1.38024676       0.00000000
Si      -1.28089900      -2.60845256      -2.41869999       0.00000000
Si       1.02401661       2.96818464       2.11876231       0.00000000
Si       2.55131376       0.70587829      -2.74384497       0.00000000
