10
Lattice="16.2900001489832 0.0 0.0 0.0 16.2900001489832 0.0 0.0 0.0 29.31082521633016" Properties=species:S:1:pos:R:3:initial_magmoms:R:1 pbc="T T T"
Si      -0.91256581      -0.69349789       2.02417628       0.00000000
Si      -1.44906067      -0.32327505      -1.82987482       0.00000000
Si      -0.16816167       2.28517751       0.58882517       0.00000000
Si       1.69943960      -1.46694709      -0.82952566       0.00000000
Si       0.21566331      -3.30455685      -0.85745888       0.00000000
Si      -2.58771539       2.31202343       0.10141546       0.00000000
Si       0.71426764      -1.76562425       3.28779526       0.00000000
Si       2.32851869      -0.58955140      -2.95757951       0.00000000
Si      -1.60076944      -2.64049499      -2.27525281       0.00000000
Si      -3.54151119       0.56391094      -1.39786257       0.00000000
