10
Lattice="16.2900001489832 0.0 0.0 0.0 16.2900001489832 0.0 0.0 0.0 29.31082521633016" Properties=species:S:1:pos:R:3:initial_magmoms:R:1 pbc="T T T"
Si       0.63763540      -0.25252758      -2.18778930       0.00000000
Si      -1.05831244      -1.61106472       1.28017960       0.00000000
Si      -1.60241473       1.67601296       0.38743049       0.00000000
Si       2.12439521      -0.01601307       1.12568224       0.00000000
H        1.30868323       3.06240600       0.08382896       0.00000000
Si      -0.06830397       3.37258389       0.56344199       0.00000000
Si      -1.01253754      -0.48635424       3.32170789       0.00000000
Si       1.27908592      -0.07398918       3.36294822       0.00000000
Si       1.94112130       1.63414765      -2.69032340       0.00000000
Si       1.49066696      -2.46106064      -2.37162680       0.00000000
