10
Lattice="16.2900001489832 0.0 0.0 0.0 16.2900001489832 0.0 0.0 0.0 29.31082521633016" Properties=species:S:1:pos:R:3:initial_magmoms:R:1 pbc="T T T"
H        0.48091338      -1.36555813      -0.39789445       0.00000000
Si      -1.76873564       0.53181963      -1.45299623       0.00000000
Si      -0.61025599      -0.01374876       2.27665973       0.00000000
Si       2.00726359       1.30701187      -0.01509508       0.00000000
H       -0.67105027      -2.42960465      -1.11495448       0.00000000
H        1.33629641      -2.58706379      -0.49933922       0.00000000
H        0.59054509      -2.13617288      -2.29984459       0.00000000
Si      -1.89713342       2.86018845      -1.02778409       0.00000000
Si       0.19010430      -2.03308976       3.01690462       0.00000000
Si       0.86168888       1.41333670       3.33645123       0.00000000
