10
Lattice="16.2900001489832 0.0 0.0 0.0 16.2900001489832 0.0 0.0 0.0 29.31082521633016" Properties=species:S:1:pos:R:3:initial_magmoms:R:1 pbc="T T T"
Si      -1.48377629      -1.83760976      -0.02793322       0.00000000
Si       0.62907908       0.87739570      -2.12805384       0.00000000
Si      -1.69943960       1.46694709       0.82952566       0.00000000
Si       1.99174411      -0.27730467       1.36342235       0.00000000
Si       0.52619144      -1.48201534       2.78139214       0.00000000
Si       1.97367850       2.10476576       1.84614233       0.00000000
Si      -3.14850028       1.14367204      -1.00034915       0.00000000
H        3.40508081       0.43305336      -0.90034062       0.00000000
Si       2.85719924      -2.00241569      -0.78224730       0.00000000
Si       2.77851854       1.61041312      -1.61968689       0.00000000
