10
Lattice="16.2900001489832 0.0 0.0 0.0 16.2900001489832 0.0 0.0 0.0 29.31082521633016" Properties=species:S:1:pos:R:3:initial_magmoms:R:1 pbc="T T T"
H       -0.89880076       0.87858487      -0.82402344       0.00000000
Si       1.46499229      -1.10613499      -1.43022992       0.00000000
Si       1.47997909       1.50544036       1.21869487       0.00000000
Si      -1.48281355      -1.35826999       1.38998440       0.00000000
H       -1.89273512       2.21055302      -0.94897548       0.00000000
Si       0.16972551      -2.47124189       2.63879263       0.00000000
Si      -2.60107319       0.30656151       2.63504670       0.00000000
Si       2.89509141      -2.45465867      -0.20934612       0.00000000
Si       2.94359993       0.25376562       2.56992098       0.00000000
Si       0.25669782       2.94743118       2.67038090       0.00000000
