10
Lattice="16.2900001489832 0.0 0.0 0.0 16.2900001489832 0.0 0.0 0.0 29.31082521633016" Properties=species:S:1:pos:R:3:initial_magmoms:R:1 pbc="T T T"
Si      -1.46555267      -1.20471067       1.41796979       0.00000000
Si      -1.99174411       0.27730467      -1.36342235       0.00000000
Si      -0.01806561       2.38207043       0.48271998       0.00000000
Si       2.28677393      -0.88674616       0.53099491       0.00000000
H        1.41333670       0.71035804      -2.26376296       0.00000000
Si       0.86545513      -1.72511102      -2.14566965       0.00000000
Si       0.78677443       1.88771780      -2.98310924       0.00000000
Si       1.54215802      -3.09250992       1.13488584       0.00000000
Si      -0.14273298      -2.56562615       2.73766039       0.00000000
Si       3.18106236      -1.25436259      -1.76248923       0.00000000
