10
Lattice="16.2900001489832 0.0 0.0 0.0 16.2900001489832 0.0 0.0 0.0 29.31082521633016" Properties=species:S:1:pos:R:3:initial_magmoms:R:1 pbc="T T T"
Si      -1.32414895       1.28826208      -1.45131965       0.00000000
Si      -1.33410214      -1.34275213       1.39585184       0.00000000
Si       1.28951804      -1.28376604      -1.49640556       0.00000000
Si       1.40033728       1.42330618       1.28901388       0.00000000
Si       2.15401043       0.44191512      -2.94692795       0.00000000
Si       2.72039744      -2.59395446      -0.10107252       0.00000000
Si       0.08361739       1.84199177      -3.32201858       0.00000000
Si       0.10006426      -2.64624536       2.75678277       0.00000000
Si      -2.64736937      -2.76635154       0.01947118       0.00000000
Si      -2.74818819      -0.12833262      -2.68029617       0.00000000
