10
Lattice="16.2900001489832 0.0 0.0 0.0 16.2900001489832 0.0 0.0 0.0 29.31082521633016" Properties=species:S:1:pos:R:3:initial_magmoms:R:1 pbc="T T T"
Si       0.76142719      -0.83163709      -2.10665694       0.00000000
Si      -0.86449239      -1.72568117       1.45052239       0.00000000
Si       1.80123419       0.93836917       1.34658621       0.00000000
Si      -2.07039304       1.40007664      -0.37509063       0.00000000
Si      -2.15401043      -0.44191512       2.94692795       0.00000000
Si       0.52224111       2.38692485       2.75659518       0.00000000
Si      -3.47815938       0.84634696       1.49560831       0.00000000
Si      -2.19742328      -3.23508000       0.16452166       0.00000000
Si      -3.07985259       0.81572176      -2.53444843       0.00000000
Si       3.66055851       1.79178599       0.11375531       0.00000000
