10
Lattice="16.2900001489832 0.0 0.0 0.0 16.2900001489832 0.0 0.0 0.0 29.31082521633016" Properties=species:S:1:pos:R:3:initial_magmoms:R:1 pbc="T T T"
Si      -1.19017999      -1.39359322       1.52026457       0.00000000
Si       1.41602455      -1.34337115      -1.37268457       0.00000000
Si      -1.36307065       1.33297487      -1.43793046       0.00000000
Si       0.95420305       1.58747355       1.51293687       0.00000000
Si      -2.25483250       0.36581150       2.66203846       0.00000000
Si       2.57240279       2.63406044      -0.02934014       0.00000000
Si       2.67960728       0.23282157       2.56478514       0.00000000
Si      -2.68998931       2.72225450      -0.08104443       0.00000000
Si      -0.00487071      -2.67385691      -2.74387428       0.00000000
Si      -2.68281527      -2.75416662       0.16988554       0.00000000
