10
Lattice="16.2900001489832 0.0 0.0 0.0 16.2900001489832 0.0 0.0 0.0 29.31082521633016" Properties=species:S:1:pos:R:3:initial_magmoms:R:1 pbc="T T T"
Si      -0.63763540       0.25252758       2.18778930       0.00000000
Si      -1.74432914       0.04258206      -1.54441669       0.00000000
Si       1.30348590       1.88667524      -0.50253410       0.00000000
Si       0.85303156      -2.20853306      -0.18383750       0.00000000
H        0.44025273       3.07113744      -0.76501254       0.00000000
Si       2.32610206       1.09908631      -2.41389301       0.00000000
Si      -0.67352227      -0.97006951      -3.39885398       0.00000000
Si       1.48675981       0.23651451       3.31347155       0.00000000
Si      -3.30826690      -1.47160603      -0.67687489       0.00000000
Si       0.44933440      -2.83271700      -2.38921330       0.00000000
