10
Lattice="16.2900001489832 0.0 0.0 0.0 16.2900001489832 0.0 0.0 0.0 29.31082521633016" Properties=species:S:1:pos:R:3:initial_magmoms:R:1 pbc="T T T"
Si       1.30569238       1.26205147       1.52999577       0.00000000
Si       1.27899307      -1.44855568      -1.41000897       0.00000000
Si      -1.27591426      -1.40553379       1.47934666       0.00000000
Si      -1.00776457       1.81519472      -1.27580350       0.00000000
Si       2.64947078       2.54088164       0.13728897       0.00000000
Si      -0.52224111      -2.38692485      -2.75659518       0.00000000
Si       0.89726950       3.45414792      -1.20366662       0.00000000
Si      -2.67300643       2.72262917       0.16012797       0.00000000
Si       2.65152332      -2.80456788       0.01862410       0.00000000
Si      -2.61184789      -0.04193046       2.88198689       0.00000000
