10
Lattice="16.2900001489832 0.0 0.0 0.0 16.2900001489832 0.0 0.0 0.0 29.31082521633016" Properties=species:S:1:pos:R:3:initial_magmoms:R:1 pbc="T T T"
H       -0.86323317       1.18446220      -0.26247844       0.00000000
Si       1.02261616      -0.78758893      -1.91135891       0.00000000
Si       1.96204418       0.53497989       1.15625343       0.00000000
Si      -1.30348590      -1.88667524       0.50253410       0.00000000
H       -1.71861619       2.40596786      -0.16103367       0.00000000
H       -1.60898449       1.63535312      -2.06298381       0.00000000
H       -0.63243808       1.42825834       2.77415236       0.00000000
H       -2.87057984       1.34192134      -0.87809370       0.00000000
Si       2.49523218      -2.43915059      -0.93982230       0.00000000
Si      -1.94112130      -1.63414765       2.69032340       0.00000000
