10
Lattice="16.2900001489832 0.0 0.0 0.0 16.2900001489832 0.0 0.0 0.0 29.31082521633016" Properties=species:S:1:pos:R:3:initial_magmoms:R:1 pbc="T T T"
Si      -1.37698720       0.31017789       0.47961303       0.00000000
H        0.66644183       0.97090030       2.02259349       0.00000000
H       -1.21345189       0.32604435       1.98850500       0.00000000
Si       2.10004818       0.72150040       1.64020447       0.00000000
Si       2.36695983      -1.36894645       0.66175050       0.00000000
H       -0.23079509      -0.24379614      -3.03663080       0.00000000
Si       0.63243808      -1.42825834      -2.77415236       0.00000000
Si       2.59448226      -0.89327845      -1.61789893       0.00000000
Si      -2.17734748       2.32951889      -0.26063186       0.00000000
Si      -2.91109796      -1.38639304       0.30360153       0.00000000
