10
Lattice="16.2900001489832 0.0 0.0 0.0 16.2900001489832 0.0 0.0 0.0 29.31082521633016" Properties=species:S:1:pos:R:3:initial_magmoms:R:1 pbc="T T T"
Si       0.95558770       2.16807847      -0.25749560       0.00000000
Si      -0.67254895      -1.08530497      -2.01365369       0.00000000
Si      -1.40193370      -0.31768758       1.90756023       0.00000000
Si       2.18870813      -1.03224844       0.29055821       0.00000000
Si       1.23870790      -0.18239913      -3.12611675       0.00000000
Si       2.60851772       1.36313092      -1.81017794       0.00000000
Si       0.35026758      -1.23095386       3.24851583       0.00000000
Si       2.37550556      -2.20402073      -1.71119529       0.00000000
Si       1.70254937      -2.64000629       1.89506502       0.00000000
Si       0.31166028      -3.30753792      -1.63132329       0.00000000
