10
Lattice="16.2900001489832 0.0 0.0 0.0 16.2900001489832 0.0 0.0 0.0 29.31082521633016" Properties=species:S:1:pos:R:3:initial_magmoms:R:1 pbc="T T T"
Si       1.16217748      -2.00847557      -0.02854874       0.00000000
Si      -2.21157066      -0.59116411      -0.40243763       0.00000000
Si       0.81643852       0.67577437      -2.11867438       0.00000000
Si       0.65241451       1.02364732       2.08508417       0.00000000
H       -2.60294654      -1.36739890       0.82131863       0.00000000
Si       2.49238631       1.87155812      -0.83969652       0.00000000
Si       1.99717031       2.79215490       1.28888492       0.00000000
H       -1.85719522      -1.81828982       2.62182400       0.00000000
Si       3.45030348      -1.64076140      -0.05741991       0.00000000
Si      -2.19480922      -2.24124338      -2.19312388       0.00000000
