10
Lattice="16.2900001489832 0.0 0.0 0.0 16.2900001489832 0.0 0.0 0.0 29.31082521633016" Properties=species:S:1:pos:R:3:initial_magmoms:R:1 pbc="T T T"
Si       1.43360635      -0.24939990      -0.38238903       0.00000000
H       -1.87989371      -0.64485595      -0.03408849       0.00000000
H       -0.66644183      -0.97090030      -2.02259349       0.00000000
H        0.71417478      -1.50249187       1.77134110       0.00000000
Si      -2.04342902      -0.66072241      -1.54298046       0.00000000
Si      -1.12472188       2.33052887       1.15437754       0.00000000
Si       2.48014112       0.05817159       1.65998928       0.00000000
Si       0.98595715       1.79201405       2.20883448       0.00000000
Si       1.70051800      -2.33984675      -1.36084299       0.00000000
Si       2.31984752       1.45505539      -1.79525873       0.00000000
