10
Lattice="16.28999089631971 0.0 0.0 0.0 16.28999089631971 0.0 0.0 0.0 34.46413024517268" Properties=species:S:1:pos:R:3:initial_magmoms:R:1 pbc="T T T"
Si      -2.12462325       0.92950740      -0.14661049       0.00000000
Si       1.61085294       1.75803309      -0.17831751       0.00000000
Si       0.00260640      -1.59917301       1.83014973       0.00000000
Si      -0.23183928      -0.93701709      -2.29586378       0.00000000
Si      -3.36419777      -1.16344809      -0.02188473       0.00000000
Si       1.76658534      -0.08275320      -3.23311633       0.00000000
Si       3.32573382       0.76481550      -1.49860461       0.00000000
Si       2.41429203       2.06272125       1.98006878       0.00000000
Si      -2.20879368       2.29156317      -2.12416339       0.00000000
Si      -2.53364886       2.59551828       1.41475334       0.00000000
