10
Lattice="16.28999089631971 0.0 0.0 0.0 16.28999089631971 0.0 0.0 0.0 34.46413024517268" Properties=species:S:1:pos:R:3:initial_magmoms:R:1 pbc="T T T"
Si      -0.78944598      -1.95351309      -0.97323312       0.00000000
Si       1.23370686       1.01718018      -1.70559629       0.00000000
Si       1.84340898       0.01466100       1.47554810       0.00000000
Si      -2.14399206       0.76079187       0.83224028       0.00000000
Si      -1.86724125      -2.68612326       0.99622071       0.00000000
Si       1.80659358      -2.32863921       1.86027140       0.00000000
Si       1.53842760       3.17891205      -0.83834044       0.00000000
Si      -0.38297790      -2.34795915       2.75247930       0.00000000
Si       1.29148749       1.92990888       2.84608393       0.00000000
Si      -2.53806345       2.60395650      -0.54825569       0.00000000
