10
Lattice="16.28999089631971 0.0 0.0 0.0 16.28999089631971 0.0 0.0 0.0 34.46413024517268" Properties=species:S:1:pos:R:3:initial_magmoms:R:1 pbc="T T T"
Si       1.23497748       1.53347544       1.44362537       0.00000000
Si      -1.44067131      -1.16133039       1.63416387       0.00000000
Si      -1.78492788      -0.00863370      -1.72331087       0.00000000
Si       1.58904063      -1.43273808      -1.29867808       0.00000000
Si      -0.41857155      -2.21690610      -2.52456788       0.00000000
Si      -2.91149541      -2.50453863       0.31393394       0.00000000
Si      -0.78271821       0.06753834      -3.79102198       0.00000000
Si      -0.08353512      -2.48039685       3.03033414       0.00000000
Si       2.72706003       2.84783409       0.05383300       0.00000000
Si       2.61695592       0.24189021       3.00136013       0.00000000
