10
Lattice="16.28999089631971 0.0 0.0 0.0 16.28999089631971 0.0 0.0 0.0 34.46413024517268" Properties=species:S:1:pos:R:3:initial_magmoms:R:1 pbc="T T T"
Si       1.63753596       1.55431035       0.74466688       0.00000000
Si      -1.47461967      -0.92585844       1.62312359       0.00000000
Si       1.31611797      -1.92868713      -0.54980658       0.00000000
Si      -1.22403060       0.58557663      -1.98703054       0.00000000
Si       0.23322393      -0.25208775      -3.59292205       0.00000000
Si      -1.77934041      -3.08759031       0.75586773       0.00000000
Si       3.10749669       1.68005286      -1.17757106       0.00000000
Si       0.87131952      -2.36824020      -2.85259765       0.00000000
Si       0.46522611       3.61333377       1.21524038       0.00000000
Si       2.51524116       0.64242873       2.83477969       0.00000000
