10
Lattice="16.28999089631971 0.0 0.0 0.0 16.28999089631971 0.0 0.0 0.0 34.46413024517268" Properties=species:S:1:pos:R:3:initial_magmoms:R:1 pbc="T T T"
Si       1.09033857       1.48892229      -1.47758148       0.00000000
Si       0.63073251      -0.04598667       2.29317558       0.00000000
Si      -2.09280888       1.14717438       0.36187357       0.00000000
Si       0.55192149      -1.91524788      -1.37053583       0.00000000
Si       2.71337643      -1.64302569       1.47134347       0.00000000
Si      -1.29148749      -1.92990888      -2.84608393       0.00000000
Si      -3.61870947      -0.64918908       0.29918328       0.00000000
Si       3.29921370       0.78552009      -1.52893306       0.00000000
Si       0.33752880       3.64322592      -0.87528600       0.00000000
Si      -1.97967483       3.03005403      -1.14327923       0.00000000
