10
Lattice="16.28999089631971 0.0 0.0 0.0 16.28999089631971 0.0 0.0 0.0 34.46413024517268" Properties=species:S:1:pos:R:3:initial_magmoms:R:1 pbc="T T T"
Si       1.36909305       1.34693865       1.38384589       0.00000000
Si      -1.34848620      -1.36748034       1.38581034       0.00000000
Si       1.34464176      -1.39720959      -1.40132610       0.00000000
Si      -1.36526490       1.34877942      -1.56147067       0.00000000
Si      -2.70409113       2.69104284       0.00126483       0.00000000
Si      -2.70624141      -2.71210581       0.02373891       0.00000000
Si       2.72350881       2.69540027       0.01408205       0.00000000
Si       0.01125639       2.70334469       2.74249159       0.00000000
Si      -2.70322776      -0.01141929       2.74290516       0.00000000
Si       2.72614779      -2.72111418       0.01017726       0.00000000
