10
Lattice="16.28999089631971 0.0 0.0 0.0 16.28999089631971 0.0 0.0 0.0 34.46413024517268" Properties=species:S:1:pos:R:3:initial_magmoms:R:1 pbc="T T T"
Si      -2.08391454       0.48053871       0.98198701       0.00000000
Si       0.75755016      -2.09590398       0.76768893       0.00000000
Si      -0.34137324      -0.74070630      -2.23779169       0.00000000
Si       1.80410121       1.60748091       0.06641242       0.00000000
Si       1.10408733      -2.53586430      -1.59362227       0.00000000
Si      -1.29349116       1.90063575       2.67169533       0.00000000
Si       3.74034690       0.25308144      -0.36028822       0.00000000
Si      -0.08226450       1.39577607      -3.50455597       0.00000000
Si      -3.43358991       1.26327321      -0.97006242       0.00000000
Si      -1.06321572      -3.58806798       0.88865809       0.00000000
