10
Lattice="16.28999089631971 0.0 0.0 0.0 16.28999089631971 0.0 0.0 0.0 34.46413024517268" Properties=species:S:1:pos:R:3:initial_magmoms:R:1 pbc="T T T"
Si      -2.30681061      -0.40892787       0.37297103       0.00000000
Si       0.04781115      -1.40041872      -1.94650070       0.00000000
Si       1.52779023      -0.69028875       1.76597748       0.00000000
Si       0.64163052       2.12603138      -1.04922657       0.00000000
Si      -3.22993233       0.33943980      -1.71690054       0.00000000
Si       2.91173976       1.24095984       1.89377055       0.00000000
Si       2.87759592       2.32480196      -0.20475151       0.00000000
Si       0.72632223       1.62836210      -3.36804347       0.00000000
Si      -1.89758952      -0.87768891      -3.20557947       0.00000000
Si      -0.16146648      -3.71804589      -1.43629343       0.00000000
