10
Lattice="16.28999089631971 0.0 0.0 0.0 16.28999089631971 0.0 0.0 0.0 34.46413024517268" Properties=species:S:1:pos:R:3:initial_magmoms:R:1 pbc="T T T"
Si      -1.45578843       1.41846708       1.13928139       0.00000000
Si       2.30681061       0.40892787      -0.37297103       0.00000000
Si      -0.92312172       0.74836767      -2.08987156       0.00000000
Si      -0.88666470      -2.21824188       0.61394436       0.00000000
Si      -3.33760597       0.12691539       0.46030318       0.00000000
Si       2.35462176      -0.99149085      -2.31947173       0.00000000
Si       0.40922109      -0.46876104      -3.57855050       0.00000000
Si      -3.10893021      -0.06335181      -1.93926323       0.00000000
Si      -2.96463339      -1.85881932       1.60161796       0.00000000
Si      -1.44078534       3.61483964       0.35515306       0.00000000
