10
Lattice="16.28999089631971 0.0 0.0 0.0 16.28999089631971 0.0 0.0 0.0 34.46413024517268" Properties=species:S:1:pos:R:3:initial_magmoms:R:1 pbc="T T T"
Si       1.23817032      -1.29855735      -1.50039675       0.00000000
Si      -1.35932882      -1.37385950       1.35933296       0.00000000
Si       1.47082410       1.34320824       1.32022993       0.00000000
Si      -1.00175192       1.24659225      -1.78489830       0.00000000
Si       1.12656753       2.49590493      -2.03724481       0.00000000
Si      -2.39289023       2.84082939      -0.50131552       0.00000000
Si      -2.62903400       0.05520681       2.70832870       0.00000000
Si       2.49292386       0.28763253      -2.83850182       0.00000000
Si       0.09549198      -2.69407997       2.70212515       0.00000000
Si       2.91149541       2.50453863      -0.31393394       0.00000000
