10
Lattice="16.28999089631971 0.0 0.0 0.0 16.28999089631971 0.0 0.0 0.0 34.46413024517268" Properties=species:S:1:pos:R:3:initial_magmoms:R:1 pbc="T T T"
Si      -1.21741686      -1.82097765       0.91812494       0.00000000
Si       0.63184023       0.32399181      -2.29889663       0.00000000
Si      -0.72938475       1.78236613       1.45914316       0.00000000
Si       2.17916217      -0.75913029       0.73915261       0.00000000
Si       2.01578976       2.25524040      -2.17110356       0.00000000
Si       1.80415008      -1.73503161      -2.76947013       0.00000000
Si      -1.01401992      -1.49830533       3.36028904       0.00000000
Si       1.02604194       3.39368660       1.43584540       0.00000000
Si       2.68185528      -2.64691323      -0.67935732       0.00000000
Si      -0.76408245       0.82792296       3.80170587       0.00000000
