10
Lattice="16.28999089631971 0.0 0.0 0.0 16.28999089631971 0.0 0.0 0.0 34.46413024517268" Properties=species:S:1:pos:R:3:initial_magmoms:R:1 pbc="T T T"
Si       0.92243428       1.75901049      -1.24784488       0.00000000
Si      -1.38891179       1.29635820       1.44170775       0.00000000
Si       1.34895535      -1.40895468       1.44522998       0.00000000
Si      -1.14494917      -1.32346476      -1.76039571       0.00000000
Si      -2.63223009      -2.54549169      -0.07965354       0.00000000
Si      -2.72648403       2.58589089      -0.16913626       0.00000000
Si       2.67833338       2.66831829       0.10886880       0.00000000
Si      -0.86642275       3.40037460      -1.55581652       0.00000000
Si      -0.01390677       2.65960314       2.82307566       0.00000000
Si       2.70273580      -0.05828562       2.82607405       0.00000000
