10
Lattice="16.28999089631971 0.0 0.0 0.0 16.28999089631971 0.0 0.0 0.0 34.46413024517268" Properties=species:S:1:pos:R:3:initial_magmoms:R:1 pbc="T T T"
Si       1.70843004      -1.65379338       0.23776131       0.00000000
Si      -1.90623951      -0.88800048       1.19827509       0.00000000
Si       0.77004459       1.91728413       1.29974100       0.00000000
Si       0.78079599       0.21159081      -2.32570974       0.00000000
Si       2.12874462       0.58604904       2.70889735       0.00000000
Si      -0.60312096      -2.15635617       2.71150284       0.00000000
Si       3.56915529      -0.56151630       1.17608363       0.00000000
Si      -1.18359882       0.92882322      -3.48980531       0.00000000
Si       0.76885542      -3.53862131       1.33773083       0.00000000
Si       2.08057509       2.42600454      -2.22962369       0.00000000
