10
Lattice="16.28999089631971 0.0 0.0 0.0 16.28999089631971 0.0 0.0 0.0 34.46413024517268" Properties=species:S:1:pos:R:3:initial_magmoms:R:1 pbc="T T T"
Si      -2.20887513       0.70340220       0.05135158       0.00000000
Si      -0.67583952      -2.12981976      -0.88703828       0.00000000
Si       0.96809841      -0.68623254       2.09093995       0.00000000
Si       0.93758724       2.03177025      -0.94383520       0.00000000
Si       3.17565405       1.31049792      -0.94786750       0.00000000
Si      -3.29921370      -0.78552009       1.52893306       0.00000000
Si      -3.05227359       0.46348308      -2.15549130       0.00000000
Si       1.16266617       1.20850623       3.45578920       0.00000000
Si       3.14471934      -1.49330430       1.64924741       0.00000000
Si      -2.74729221      -2.70076797       0.15839723       0.00000000
