10
Lattice="16.28999089631971 0.0 0.0 0.0 16.28999089631971 0.0 0.0 0.0 34.46413024517268" Properties=species:S:1:pos:R:3:initial_magmoms:R:1 pbc="T T T"
Si       0.19456776       1.89473877       1.36484925       0.00000000
Si       2.17662093      -0.80707176      -0.44169254       0.00000000
Si      -0.96809841       0.68623254      -2.09093995       0.00000000
Si      -1.55393568      -1.74231324       0.90933658       0.00000000
Si       3.08879577       1.33858188      -0.90268500       0.00000000
Si       0.56277063       0.68709591       3.38145003       0.00000000
Si       1.89141561      -1.91606238      -2.49386032       0.00000000
Si      -1.64393793      -1.44358722      -2.97797823       0.00000000
Si      -0.41348907      -3.84009057      -0.03711789       0.00000000
Si       2.85068484      -2.34290925       1.22306374       0.00000000
