10
Lattice="16.28999089631971 0.0 0.0 0.0 16.28999089631971 0.0 0.0 0.0 34.46413024517268" Properties=species:S:1:pos:R:3:initial_magmoms:R:1 pbc="T T T"
Si       1.35536058       1.35601507      -1.35726714       0.00000000
Si      -1.35759231       1.35721350       1.35716374       0.00000000
Si       1.35778779      -1.35786924       1.35719821       0.00000000
Si      -1.35796698      -1.35975888      -1.35764624       0.00000000
Si       0.00526167      -2.71617831      -2.71250089       0.00000000
Si       2.71521720      -0.00166158       2.71398285       0.00000000
Si      -2.71487511      -0.00205254       2.71446534       0.00000000
Si       2.71484253       2.71456790      -0.00037911       0.00000000
Si       0.00073305       2.71498818       2.71456874       0.00000000
Si      -2.71507059       2.71471614      -0.00041357       0.00000000
