10
Lattice="16.28999089631971 0.0 0.0 0.0 16.28999089631971 0.0 0.0 0.0 34.46413024517268" Properties=species:S:1:pos:R:3:initial_magmoms:R:1 pbc="T T T"
Si      -1.35044100       1.36013355       1.35675017       0.00000000
Si      -1.35518139      -1.35725022      -1.35761178       0.00000000
Si       1.35816246      -1.35785295       1.35881802       0.00000000
Si       1.35969372       1.35835794      -1.35719821       0.00000000
Si      -0.00381186      -2.71065600       2.70684877       0.00000000
Si      -0.01018125       2.68969077       2.73193867       0.00000000
Si      -2.71357191      -2.71305063      -0.00106839       0.00000000
Si      -2.71296918       2.71417464       0.00006893       0.00000000
Si      -2.71331127       0.00133578      -2.71418963       0.00000000
Si       0.00241092      -2.71419093      -2.71422409       0.00000000
