10
Lattice="16.28999089631971 0.0 0.0 0.0 16.28999089631971 0.0 0.0 0.0 34.46413024517268" Properties=species:S:1:pos:R:3:initial_magmoms:R:1 pbc="T T T"
Si       1.38394953       1.93124859       0.12779307       0.00000000
Si      -0.63184023      -0.32399181       2.29889663       0.00000000
Si       1.17230985      -2.05902342      -0.47057350       0.00000000
Si      -1.52779023       0.69028875      -1.76597748       0.00000000
Si       1.54732194      -1.08312210       3.03804924       0.00000000
Si      -0.46522611      -3.61333377      -1.21524038       0.00000000
Si       1.34980569       3.01509071      -1.97072900       0.00000000
Si       2.05001505      -2.97090504       1.61953931       0.00000000
Si       0.43671861       3.65558093       1.49129821       0.00000000
Si       2.64227058      -1.93328091      -2.39281144       0.00000000
