10
Lattice="16.28999089631971 0.0 0.0 0.0 16.28999089631971 0.0 0.0 0.0 34.46413024517268" Properties=species:S:1:pos:R:3:initial_magmoms:R:1 pbc="T T T"
Si       1.35718506      -1.35699638      -1.35716374       0.00000000
Si      -1.35780408       1.35729459      -1.35747392       0.00000000
Si       1.35738054       1.35849516       1.35716374       0.00000000
Si      -1.35742941      -1.35893489       1.35688803       0.00000000
Si      -0.00030951      -2.71484933       2.71212178       0.00000000
Si      -0.00013032       2.71401213      -2.71384499       0.00000000
Si       2.71481268      -2.71437692       0.00013786       0.00000000
Si       2.71520467       0.00117752      -2.71436195       0.00000000
Si      -2.71485882      -2.71514255       0.00010339       0.00000000
Si      -2.71495656       2.71510356       0.00013786       0.00000000
