10
Lattice="16.28999089631971 0.0 0.0 0.0 16.28999089631971 0.0 0.0 0.0 34.46413024517268" Properties=species:S:1:pos:R:3:initial_magmoms:R:1 pbc="T T T"
Si       1.42785990      -1.23665209      -1.37567099       0.00000000
Si      -1.29832929       1.48957389      -1.36033445       0.00000000
Si       1.60734963       1.15018803       1.36302265       0.00000000
Si      -1.11472470      -1.74173332       1.38197793       0.00000000
Si       2.68832960      -2.41518798       0.27436909       0.00000000
Si       0.75471963      -3.22643717       1.63821888       0.00000000
Si       0.06263505      -2.58200477      -2.73314491       0.00000000
Si      -2.65556322       0.13348026      -2.73142170       0.00000000
Si      -2.72311785      -2.67534647       0.00334302       0.00000000
Si      -2.60646516       2.89504251       0.05011087       0.00000000
