10
Lattice="16.28999089631971 0.0 0.0 0.0 16.28999089631971 0.0 0.0 0.0 34.46413024517268" Properties=species:S:1:pos:R:3:initial_magmoms:R:1 pbc="T T T"
Si      -0.35440524       2.28043710      -0.27812569       0.00000000
Si      -0.79073289      -0.96213627      -2.01584257       0.00000000
Si       2.26564482      -0.90155702       0.54508499       0.00000000
Si      -1.82193876       1.74420288       1.49529605       0.00000000
Si      -0.90492579      -3.01487894      -0.89486164       0.00000000
Si      -2.92343598       0.11332953      -1.60792490       0.00000000
Si      -3.48944832       0.26705826       0.63396803       0.00000000
Si       1.63159011      -1.49254030       2.83984592       0.00000000
Si      -2.20954302       2.38964526      -1.89180609       0.00000000
Si      -1.73934846      -3.09499316       1.28568510       0.00000000
