10
Lattice="16.28999089631971 0.0 0.0 0.0 16.28999089631971 0.0 0.0 0.0 34.46413024517268" Properties=species:S:1:pos:R:3:initial_magmoms:R:1 pbc="T T T"
Si      -2.30277069       0.37457226      -0.45499570       0.00000000
Si       0.56371545      -1.97441479      -1.23388548       0.00000000
Si       1.26113012       1.94318523      -0.61249687       0.00000000
Si       0.06921621      -0.04144176       2.43878661       0.00000000
Si      -2.82835125       1.61002215       1.47013723       0.00000000
Si      -0.32299812       3.69387153      -0.55297728       0.00000000
Si       2.33819234      -3.11436197      -0.09053732       0.00000000
Si       0.14349861      -2.18679566       3.26823530       0.00000000
Si      -2.12048559       0.27404667       3.31090191       0.00000000
Si      -1.17095778      -3.63810176      -1.05360351       0.00000000
