10
Lattice="16.28999089631971 0.0 0.0 0.0 16.28999089631971 0.0 0.0 0.0 34.46413024517268" Properties=species:S:1:pos:R:3:initial_magmoms:R:1 pbc="T T T"
Si      -2.23785504       0.27956898       0.52678453       0.00000000
Si       1.00973565       2.10108420      -0.19423995       0.00000000
Si       0.52558056      -1.23544989      -1.92513293       0.00000000
Si       0.70786566      -1.33597548       1.84076469       0.00000000
Si      -2.83011057      -1.92730248      -0.19913386       0.00000000
Si       2.89756746      -1.65146391       0.96864939       0.00000000
Si      -1.05132402      -2.98358680      -1.47010276       0.00000000
Si       2.82835125      -1.61002215      -1.47013723       0.00000000
Si       0.02161683       0.00645084       3.61011966       0.00000000
Si      -0.88484022       3.45209535      -0.72254089       0.00000000
