10
Lattice="16.28999089631971 0.0 0.0 0.0 16.28999089631971 0.0 0.0 0.0 34.46413024517268" Properties=species:S:1:pos:R:3:initial_magmoms:R:1 pbc="T T T"
Si      -0.01752804       1.03114071      -2.14880526       0.00000000
Si      -1.73944620      -1.62684320       0.45254875       0.00000000
Si       2.09189664      -1.25165844      -0.14474943       0.00000000
Si      -0.58762917       2.12605677       1.79396237       0.00000000
Si      -0.93428037      -3.34941038      -0.95152070       0.00000000
Si       1.71696600      -2.78467971       1.65172883       0.00000000
Si       3.76128348       0.45432810       0.04066770       0.00000000
Si       1.30499190       2.99542149      -2.00419369       0.00000000
Si      -2.55202398       2.84328918       0.62986680       0.00000000
Si      -3.82485942      -0.84800853      -0.25258775       0.00000000
