10
Lattice="16.28999089631971 0.0 0.0 0.0 16.28999089631971 0.0 0.0 0.0 34.46413024517268" Properties=species:S:1:pos:R:3:initial_magmoms:R:1 pbc="T T T"
Si       1.34185617       1.34338743       1.37549867       0.00000000
Si      -1.35870003       1.33123509      -1.40915636       0.00000000
Si      -1.36982610      -1.37720547       1.36843352       0.00000000
Si       1.44041067      -1.14756534      -1.53281373       0.00000000
Si      -0.42031458      -2.23984242      -2.47113604       0.00000000
Si      -2.12874462      -0.58604904      -2.70889735       0.00000000
Si       2.68372897       2.69428455      -0.01145244       0.00000000
Si       2.69154783      -2.71116099      -0.00391168       0.00000000
Si      -2.73877254       2.68669341       0.00363597       0.00000000
Si      -0.01220121       2.69720046       2.73221438       0.00000000
