10
Lattice="16.28999089631971 0.0 0.0 0.0 16.28999089631971 0.0 0.0 0.0 34.46413024517268" Properties=species:S:1:pos:R:3:initial_magmoms:R:1 pbc="T T T"
Si       1.23404701       1.33610580      -1.59813708       0.00000000
Si       1.76890571      -1.31584104       1.18639388       0.00000000
Si      -1.46712627      -1.28264202      -1.59355334       0.00000000
Si      -1.29744963       0.80407440       2.05009993       0.00000000
Si       3.08648978       2.25556227      -0.51258530       0.00000000
Si       1.07745318      -1.35389448       3.45706437       0.00000000
Si       0.31193721       0.83380365       3.76641458       0.00000000
Si      -2.59928127      -2.91669192      -0.36190803       0.00000000
Si       2.54483750       0.01312974      -3.02385001       0.00000000
Si      -0.15899040      -2.68811064      -3.00399866       0.00000000
