10
Lattice="16.28999089631971 0.0 0.0 0.0 16.28999089631971 0.0 0.0 0.0 34.46413024517268" Properties=species:S:1:pos:R:3:initial_magmoms:R:1 pbc="T T T"
Si      -1.86872364      -0.95967648      -1.19674833       0.00000000
Si       1.86006129       0.81448371      -1.38668026       0.00000000
Si       1.33757224      -1.28953269       1.61084401       0.00000000
Si      -1.33411842       1.42071606       1.61212952       0.00000000
Si       2.72648403      -2.58589089       0.16913626       0.00000000
Si      -2.70485676      -2.65258215       0.21314009       0.00000000
Si       2.78461164       2.67789681       0.07130633       0.00000000
Si      -2.82802545       2.62850553       0.25301166       0.00000000
Si       3.64891832      -0.82688040      -1.07870862       0.00000000
Si      -3.68224047       0.88614342      -1.15783831       0.00000000
