10
Lattice="16.28999089631971 0.0 0.0 0.0 16.28999089631971 0.0 0.0 0.0 34.46413024517268" Properties=species:S:1:pos:R:3:initial_magmoms:R:1 pbc="T T T"
Si      -1.31760036       1.38113136       1.29526613       0.00000000
Si       1.33943997       1.37512035      -1.35271787       0.00000000
Si      -1.37569050      -1.33771851      -1.35454447       0.00000000
Si       1.37386408      -1.38618126       1.42102581       0.00000000
Si       0.29325258       2.40332886       2.64126349       0.00000000
Si       2.68465457      -2.70915732      -0.00468712       0.00000000
Si       2.69684927       0.02091636      -2.71422409       0.00000000
Si      -0.01891269      -2.69627193      -2.71549927       0.00000000
Si      -2.74509306      -2.69145009       0.01912760       0.00000000
Si      -2.73326652       0.02119329      -2.71532695       0.00000000
