10
Lattice="16.28999089631971 0.0 0.0 0.0 16.28999089631971 0.0 0.0 0.0 34.46413024517268" Properties=species:S:1:pos:R:3:initial_magmoms:R:1 pbc="T T T"
Si       1.85244276       0.91945647       1.08555178       0.00000000
Si       1.31079049      -1.32297606      -1.42571294       0.00000000
Si      -1.37386408       1.38618126      -1.42102581       0.00000000
Si      -1.23404701      -1.33610580       1.59813708       0.00000000
Si       0.52813418       2.33784306       2.38192076       0.00000000
Si       3.43257276      -0.84957237       1.23864153       0.00000000
Si      -2.70117328      -2.61874782       0.00458373       0.00000000
Si       2.62857981      -2.71383255      -0.07737202       0.00000000
Si      -0.03307491      -2.66742234      -2.78042973       0.00000000
Si       2.67889962       0.04794147      -2.77463975       0.00000000
