10
Lattice="16.28999089631971 0.0 0.0 0.0 16.28999089631971 0.0 0.0 0.0 34.46413024517268" Properties=species:S:1:pos:R:3:initial_magmoms:R:1 pbc="T T T"
Si       0.96865227      -0.72542628      -1.98086146       0.00000000
Si       1.80017532      -0.09938529       1.48509467       0.00000000
Si      -2.17696302      -0.79276914       0.55390781       0.00000000
Si      -0.45230814       2.07669807      -1.11505309       0.00000000
Si       0.85973733      -2.26427742       1.56822219       0.00000000
Si      -2.16655371       2.83346631       0.28474280       0.00000000
Si      -3.53853009       0.96910839      -0.16174025       0.00000000
Si      -0.64073457      -0.75515553      -3.69717610       0.00000000
Si       2.45091425       1.04184324      -2.77367475       0.00000000
Si       1.65389112       1.34452773       3.28850022       0.00000000
