10
Lattice="16.28999089631971 0.0 0.0 0.0 16.28999089631971 0.0 0.0 0.0 34.46413024517268" Properties=species:S:1:pos:R:3:initial_magmoms:R:1 pbc="T T T"
Si      -1.56646269      -1.74076569      -0.04725035       0.00000000
Si      -0.05603760       1.55566242      -1.76291018       0.00000000
Si       2.01733798      -0.65099727      -1.03261485       0.00000000
Si       0.18614583       0.83250045       2.20425807       0.00000000
Si      -1.47395178      -0.05760144      -3.03119088       0.00000000
Si       1.33675970      -2.77562052      -1.70587201       0.00000000
Si       3.53936807       0.05883948       0.56224814       0.00000000
Si       2.51679590       1.09659393       2.44912586       0.00000000
Si      -3.28070826      -0.98399745       1.35254555       0.00000000
Si      -1.10237688       2.87627643       2.13539870       0.00000000
