10
Lattice="16.28999089631971 0.0 0.0 0.0 16.28999089631971 0.0 0.0 0.0 34.46413024517268" Properties=species:S:1:pos:R:3:initial_magmoms:R:1 pbc="T T T"
Si       0.14628420      -1.44391302      -1.80340555       0.00000000
Si      -1.01546973       2.08492452      -0.25882576       0.00000000
Si      -0.89259426      -0.72073476       2.04179407       0.00000000
Si       2.31413201       0.28316907       0.49438822       0.00000000
Si       0.49307454       0.81713898       3.17935226       0.00000000
Si       0.01798416       2.76353334       1.86420031       0.00000000
Si       2.40071336      -1.28124108      -2.54321298       0.00000000
Si       3.44442995      -1.53295416      -0.48759879       0.00000000
Si      -1.02969090      -3.06654363       2.00708867       0.00000000
Si      -3.38970465       1.80169029      -0.63920658       0.00000000
