10
Lattice="16.28999089631971 0.0 0.0 0.0 16.28999089631971 0.0 0.0 0.0 34.46413024517268" Properties=species:S:1:pos:R:3:initial_magmoms:R:1 pbc="T T T"
Si      -2.30858622       0.29276388       0.34522739       0.00000000
Si       0.85505625       2.18129616       0.29387580       0.00000000
Si       0.49458951      -0.19471437      -2.30148144       0.00000000
Si       0.82501261      -1.41120270       1.79496183       0.00000000
Si       3.00658733      -1.79429463       0.98508879       0.00000000
Si      -0.86881086       3.60183303      -0.52595739       0.00000000
Si      -3.18982635       0.95091246      -1.79089506       0.00000000
Si      -3.22076106      -1.85288976       0.80621985       0.00000000
Si       2.79574586      -0.47105793      -2.70843412       0.00000000
Si      -0.89107929      -1.73258811      -3.43903962       0.00000000
