10
Lattice="16.28999089631971 0.0 0.0 0.0 16.28999089631971 0.0 0.0 0.0 34.46413024517268" Properties=species:S:1:pos:R:3:initial_magmoms:R:1 pbc="T T T"
Si      -0.28520532      -1.10899062      -2.05216778       0.00000000
Si      -2.17662093       0.80707176       0.44169254       0.00000000
Si       0.67406391      -1.53583749       1.66475628       0.00000000
Si       0.91217484       2.14565364      -0.46099246       0.00000000
Si       0.07716573       0.67359150      -3.67973724       0.00000000
Si       3.04528518      -1.78065990       1.36123051       0.00000000
Si      -2.34141057      -2.31327774      -1.89011735       0.00000000
Si       3.22076106       1.85288976      -0.80621985       0.00000000
Si       0.19966653      -0.35165223       3.78423254       0.00000000
Si      -1.98205317       2.70181053       1.80654179       0.00000000
