10
Lattice="16.28999089631971 0.0 0.0 0.0 16.28999089631971 0.0 0.0 0.0 34.46413024517268" Properties=species:S:1:pos:R:3:initial_magmoms:R:1 pbc="T T T"
Si      -1.18333818       1.43328451       1.42738445       0.00000000
Si       0.88369992       1.84994031      -1.24334865       0.00000000
Si       1.53194731      -1.29311649       1.38353226       0.00000000
Si      -1.75819599      -1.02578130      -1.36070808       0.00000000
Si       1.82281909       0.81261036      -3.11231401       0.00000000
Si      -2.53353483       2.75704733       0.03661127       0.00000000
Si      -2.54539395       0.08151516       2.77903737       0.00000000
Si       0.17228304      -2.63779083       2.77810684       0.00000000
Si      -2.65551435      -2.79595044       0.03849301       0.00000000
Si       2.78760737       2.74149038       0.05487037       0.00000000
