10
Lattice="16.28999089631971 0.0 0.0 0.0 16.28999089631971 0.0 0.0 0.0 34.46413024517268" Properties=species:S:1:pos:R:3:initial_magmoms:R:1 pbc="T T T"
Si       1.60839315       0.93361315       1.37863491       0.00000000
Si       1.42265457      -1.28172978      -1.36898495       0.00000000
Si      -1.26838827       1.43693994      -1.38714755       0.00000000
Si      -1.67642019      -1.02418488       1.38111633       0.00000000
Si       0.25119180       1.01010122       3.41922274       0.00000000
Si      -2.64021804       2.67291926       0.01375120       0.00000000
Si       0.06757092      -2.62153341      -2.73948632       0.00000000
Si      -2.64992688      -2.72368800       0.05624549       0.00000000
Si      -2.64512133       0.09274411      -2.73314491       0.00000000
Si       2.84799033      -2.53215018       0.11424866       0.00000000
