10
Lattice="16.28999089631971 0.0 0.0 0.0 16.28999089631971 0.0 0.0 0.0 34.46413024517268" Properties=species:S:1:pos:R:3:initial_magmoms:R:1 pbc="T T T"
Si      -1.32574536      -1.92028149       0.00286052       0.00000000
Si       0.83442267       0.08011422      -2.18054674       0.00000000
Si      -1.76855643       1.42906536       0.66670897       0.00000000
Si       1.63626534      -0.06123411       1.73444279       0.00000000
Si       0.00249237       0.17057259       3.50865720       0.00000000
Si      -2.59258608      -1.59045786      -1.97376184       0.00000000
Si      -0.58639113      -1.27764099      -3.41401865       0.00000000
Si      -1.07245215       2.20330299       2.78808077       0.00000000
Si       2.68260462      -1.38184812      -2.16386609       0.00000000
Si       1.73934846       3.09499316      -1.28568510       0.00000000
