10
Lattice="16.28999089631971 0.0 0.0 0.0 16.28999089631971 0.0 0.0 0.0 34.46413024517268" Properties=species:S:1:pos:R:3:initial_magmoms:R:1 pbc="T T T"
Si      -2.06368236      -1.19964447       0.33488814       0.00000000
Si       0.55962666       2.00917602      -1.27162372       0.00000000
Si       0.05605389       1.10524392       2.36313780       0.00000000
Si       0.83054565      -1.75580136      -1.93264611       0.00000000
Si      -3.11029857       0.84665646      -0.15129762       0.00000000
Si      -1.69547949      -2.40728733       2.35148892       0.00000000
Si      -0.84126447      -0.66492522       3.76233889       0.00000000
Si       2.27032101       1.55326779      -2.80383088       0.00000000
Si      -2.25825012      -3.09438324      -1.02996111       0.00000000
Si       1.59725079       3.72754819      -0.04521696       0.00000000
