10
Lattice="16.28999089631971 0.0 0.0 0.0 16.28999089631971 0.0 0.0 0.0 34.46413024517268" Properties=species:S:1:pos:R:3:initial_magmoms:R:1 pbc="T T T"
Si       1.00220967       0.07617204      -2.06771111       0.00000000
Si      -2.12831945      -1.24931268       0.25234650       0.00000000
Si       1.78492788       0.00863370       1.72331087       0.00000000
Si       1.36635633      -2.20827240      -0.80125701       0.00000000
Si      -1.12656753      -2.49590493       2.03724481       0.00000000
Si       0.34425657      -1.15269669       3.35747474       0.00000000
Si       3.37396851      -1.42410438       0.42463279       0.00000000
Si       0.11160279      -3.79446228       0.53684806       0.00000000
Si      -3.51945776       0.34492446       1.53592929       0.00000000
Si      -0.48205368      -0.26199207      -3.82396971       0.00000000
