10
Lattice="16.28999089631971 0.0 0.0 0.0 16.28999089631971 0.0 0.0 0.0 34.46413024517268" Properties=species:S:1:pos:R:3:initial_magmoms:R:1 pbc="T T T"
Si      -1.35725853      -1.35651129      -1.35709482       0.00000000
Si       1.35656115      -1.35734188       1.35764624       0.00000000
Si      -1.35729915       1.35730072       1.35743946       0.00000000
Si       1.35794580       1.35873424      -1.35778410       0.00000000
Si       2.71363218      -0.00139442       2.71477552       0.00000000
Si      -2.71508266       0.00080636       2.71443088       0.00000000
Si       2.71519602       2.71446949       0.00010339       0.00000000
Si       2.71493538      -2.71491325      -0.00024125       0.00000000
Si      -2.71527814      -2.71468519       0.00010339       0.00000000
Si      -2.71490347       2.71507222      -0.00041357       0.00000000
