10
Lattice="16.28999089631971 0.0 0.0 0.0 16.28999089631971 0.0 0.0 0.0 34.46413024517268" Properties=species:S:1:pos:R:3:initial_magmoms:R:1 pbc="T T T"
Si      -0.92243428      -1.75901049       1.24784488       0.00000000
Si       1.75589910       0.90930780       1.35671368       0.00000000
Si      -1.78885703       1.64136411      -0.30797164       0.00000000
Si      -1.67153482       0.66054321      -2.91353027       0.00000000
Si       0.41884848       2.26945764       2.71336391       0.00000000
Si      -2.31134607      -0.46265229       2.68955263       0.00000000
Si      -2.06738345      -3.08247525      -0.51255083       0.00000000
Si       0.51003990       0.27745128      -3.72340332       0.00000000
Si      -0.86430668       3.50477721       1.15001494       0.00000000
Si      -3.64891832       0.82688040       1.07870862       0.00000000
