10
Lattice="16.28999089631971 0.0 0.0 0.0 16.28999089631971 0.0 0.0 0.0 34.46413024517268" Properties=species:S:1:pos:R:3:initial_magmoms:R:1 pbc="T T T"
Si      -1.11077586      -1.77919380       1.14817314       0.00000000
Si      -1.42533576       1.25042040      -1.48323360       0.00000000
Si       1.31463965      -1.43902602      -1.45225033       0.00000000
Si       0.62984715       1.98105948       1.52062720       0.00000000
Si       2.56345712       2.79230867       0.15677742       0.00000000
Si      -2.84799033       2.53215018      -0.11424866       0.00000000
Si      -0.06223743       2.62549188      -2.85073659       0.00000000
Si       2.64777416      -0.08757504      -2.84725571       0.00000000
Si      -1.23959718       3.46576333       1.26438625       0.00000000
Si      -2.72162880      -2.80139130      -0.19782422       0.00000000
