10
Lattice="16.28999089631971 0.0 0.0 0.0 16.28999089631971 0.0 0.0 0.0 34.35334932831803" Properties=species:S:1:pos:R:3:initial_magmoms:R:1 pbc="T T T"
Si      -1.46438401       1.13558730       1.50916409       0.00000000
Si      -1.84916979      -0.84178412      -1.27944109       0.00000000
Si       1.22542828      -1.56355885       1.46174270       0.00000000
Si       1.55850991       1.39015113      -1.57817799       0.00000000
Si      -2.74477770       2.48927001       0.14727976       0.00000000
Si       2.78372968       2.56127181       0.11778739       0.00000000
Si      -0.89660160      -0.43188537      -3.66150367       0.00000000
Si      -0.14103882       2.49368460       2.85795635       0.00000000
Si       2.57472898      -0.22013492       2.85221934       0.00000000
Si      -2.73959748      -2.79848746       0.03376249       0.00000000
