10
Lattice="16.28999089631971 0.0 0.0 0.0 16.28999089631971 0.0 0.0 0.0 34.35334932831803" Properties=species:S:1:pos:R:3:initial_magmoms:R:1 pbc="T T T"
Si       0.97060707      -2.03690160       0.63526249       0.00000000
Si       1.87501158       1.36915236       0.38719682       0.00000000
Si      -1.18010366       0.26487540      -2.03554015       0.00000000
Si      -1.49164991       0.49645634       1.80550999       0.00000000
Si       1.88230950       0.92876362       2.67849779       0.00000000
Si       0.86978826       3.42012527      -0.13731041       0.00000000
Si       1.79680329      -1.39548285       2.74713582       0.00000000
Si      -2.94167168       2.11239665       0.80438412       0.00000000
Si       3.02967936      -2.11214511      -0.43110042       0.00000000
Si      -3.16187990       1.45879461      -1.44796013       0.00000000
