10
Lattice="16.28999089631971 0.0 0.0 0.0 16.28999089631971 0.0 0.0 0.0 34.35334932831803" Properties=species:S:1:pos:R:3:initial_magmoms:R:1 pbc="T T T"
Si       1.60646441       0.63420228      -1.62240654       0.00000000
Si       1.70822804      -0.37706463       1.77764941       0.00000000
Si      -2.14488542       0.47719926      -1.34551839       0.00000000
Si       0.15510686      -2.56982895      -0.39382702       0.00000000
Si       2.52667022      -2.05991937       0.32429580       0.00000000
Si      -1.47802169      -2.64013659       1.54720701       0.00000000
Si       0.24290671      -1.64167362       3.17868769       0.00000000
Si      -0.55588322       3.51040445      -0.61581848       0.00000000
Si       1.69197062       2.95844875      -1.69104457       0.00000000
Si       0.78026819      -0.00721647      -3.73427987       0.00000000
