10
Lattice="16.28999089631971 0.0 0.0 0.0 16.28999089631971 0.0 0.0 0.0 34.35334932831803" Properties=species:S:1:pos:R:3:initial_magmoms:R:1 pbc="T T T"
Si       1.31834970      -1.37732480       1.41096842       0.00000000
Si      -0.66572343      -1.95134719      -1.17299542       0.00000000
Si      -1.40080968       1.31449549       1.42558235       0.00000000
Si       1.18816002       1.50666862      -1.56334077       0.00000000
Si      -0.76986540      -1.07692701      -3.36376646       0.00000000
Si       2.54365092       2.70520537      -0.03561414       0.00000000
Si      -2.62743039      -2.65776304      -0.03015195       0.00000000
Si      -2.56388310       2.75912527       0.04289362       0.00000000
Si       2.65940766      -0.02289559       2.77979900       0.00000000
Si      -0.05483214       2.69526847       2.78065784       0.00000000
