10
Lattice="16.28999089631971 0.0 0.0 0.0 16.28999089631971 0.0 0.0 0.0 34.35334932831803" Properties=species:S:1:pos:R:3:initial_magmoms:R:1 pbc="T T T"
Si       1.35808101      -1.35542574       1.35764512       0.00000000
Si      -1.35705474      -1.35713619      -1.35712982       0.00000000
Si       1.35796698       1.35808101      -1.35699241       0.00000000
Si      -1.35671265       1.35822762       1.36575252       0.00000000
Si      -2.71472850       0.00105885      -2.71381305       0.00000000
Si       0.00048870      -2.71429356      -2.71450012       0.00000000
Si      -2.71559187      -2.71321353       0.00068707       0.00000000
Si       0.00001629       2.71505430      -2.71388176       0.00000000
Si       2.71342530      -2.71553160       0.00020612       0.00000000
Si       2.71487511       0.00096111      -2.71436271       0.00000000
