10
Lattice="16.28999089631971 0.0 0.0 0.0 16.28999089631971 0.0 0.0 0.0 34.35334932831803" Properties=species:S:1:pos:R:3:initial_magmoms:R:1 pbc="T T T"
Si      -1.83826134      -1.41984129       0.17382804       0.00000000
Si      -0.72321084       1.77023430       1.43387525       0.00000000
Si       1.66721634      -1.35433920       1.09996051       0.00000000
Si       0.58231863       0.27960156      -2.33915522       0.00000000
Si      -1.06186365      -3.22155017      -1.11140018       0.00000000
Si       1.20199023       3.01824378       1.69794959       0.00000000
Si      -2.02307139      -1.84988330       2.50339867       0.00000000
Si      -2.36664378       2.91200040       0.12305377       0.00000000
Si       2.02958739       3.14626689      -0.51299885       0.00000000
Si       1.78678494      -0.56158146       3.29074352       0.00000000
