10
Lattice="16.28999089631971 0.0 0.0 0.0 16.28999089631971 0.0 0.0 0.0 34.35334932831803" Properties=species:S:1:pos:R:3:initial_magmoms:R:1 pbc="T T T"
Si      -1.84433800      -1.28216635      -0.51066282       0.00000000
Si       0.24550659       2.30669658       0.54274887       0.00000000
Si       2.04983586      -0.37983882      -1.21803303       0.00000000
Si      -0.88361032      -1.02537568       2.07923763       0.00000000
Si       1.34781831      -1.30721223       2.85909345       0.00000000
Si      -1.02475014      -3.34206359      -1.35606487       0.00000000
Si       1.38623013       3.18620997      -1.43744800       0.00000000
Si      -3.35105567       0.11639205      -1.76133156       0.00000000
Si       3.76839828       0.39223062       0.34611019       0.00000000
Si      -1.81851183       3.43836288       0.33394910       0.00000000
