10
Lattice="16.28999089631971 0.0 0.0 0.0 16.28999089631971 0.0 0.0 0.0 34.35334932831803" Properties=species:S:1:pos:R:3:initial_magmoms:R:1 pbc="T T T"
Si       0.10414197      -0.87442018       2.19077103       0.00000000
Si      -0.91807182      -1.62807703      -1.45208253       0.00000000
Si      -1.84008582       1.53777763      -0.06747002       0.00000000
Si       2.41719165       0.36089680      -0.67456274       0.00000000
Si       0.62074674      -0.69332425      -3.21976947       0.00000000
Si      -3.22649514       0.29093940      -1.44785707       0.00000000
Si      -0.89821431       3.07498348      -1.65603848       0.00000000
Si       0.76986540       1.07692701       3.36376646       0.00000000
Si       1.95802542       2.58359563       1.80042569       0.00000000
Si       1.63128060      -2.80690288       2.18751296       0.00000000
