10
Lattice="16.28999089631971 0.0 0.0 0.0 16.28999089631971 0.0 0.0 0.0 34.35334932831803" Properties=species:S:1:pos:R:3:initial_magmoms:R:1 pbc="T T T"
Si       1.35381303      -1.35321030       1.35795430       0.00000000
Si      -1.34842104      -1.35889551      -1.36988866       0.00000000
Si      -1.35873261       1.36531377       1.35513733       0.00000000
Si       1.34527707       1.36769211      -1.36960353       0.00000000
Si      -0.37009251       2.36183823      -2.72909687       0.00000000
Si      -2.51591231       0.15514596      -2.77527467       0.00000000
Si       0.20409741      -2.64419280      -2.73814211       0.00000000
Si       2.71314837      -2.70804960      -0.00037789       0.00000000
Si      -0.00306252      -2.70932022       2.71450012       0.00000000
Si       2.71168227       0.00467523       2.71443141       0.00000000
