10
Lattice="16.28999089631971 0.0 0.0 0.0 16.28999089631971 0.0 0.0 0.0 34.35334932831803" Properties=species:S:1:pos:R:3:initial_magmoms:R:1 pbc="T T T"
Si      -0.47659653      -0.74585394      -2.15996805       0.00000000
Si       1.89402201      -1.30124520       0.53086260       0.00000000
Si       0.77012604       2.17934136      -0.47651557       0.00000000
Si      -0.82759716      -0.12802311       2.21094845       0.00000000
Si       2.63432106       0.36582453       2.00252656       0.00000000
Si       1.39598784       2.46480732       1.76287746       0.00000000
Si       1.83185937      -0.44720937      -2.89567979       0.00000000
Si       2.55764403       1.60348986      -1.93024707       0.00000000
Si      -2.75279823      -1.37603259       1.94687410       0.00000000
Si      -0.59497596       2.08389825       2.97630714       0.00000000
