10
Lattice="16.28999089631971 0.0 0.0 0.0 16.28999089631971 0.0 0.0 0.0 34.35334932831803" Properties=species:S:1:pos:R:3:initial_magmoms:R:1 pbc="T T T"
Si       0.62586180       0.28546596       2.23939303       0.00000000
Si      -0.77012604      -2.17934136       0.47651557       0.00000000
Si      -1.59969429       1.43299872      -0.99085421       0.00000000
Si       1.78751799      -0.57585150      -1.45373150       0.00000000
Si       1.42617321       2.69035866      -1.18515686       0.00000000
Si       3.52991268      -0.02041137       0.10611756       0.00000000
Si       1.18441332       0.76533678      -3.28294531       0.00000000
Si       1.86419502      -1.81351683       2.47904213       0.00000000
Si      -1.24672257      -2.92519530      -1.68345247       0.00000000
Si      -1.18677537       0.90582174      -3.34856024       0.00000000
