10
Lattice="16.28999089631971 0.0 0.0 0.0 16.28999089631971 0.0 0.0 0.0 34.35334932831803" Properties=species:S:1:pos:R:3:initial_magmoms:R:1 pbc="T T T"
Si       0.47659653       0.74585394       2.15996805       0.00000000
Si      -0.97067223      -2.12081139       0.33381168       0.00000000
Si      -0.97629228       1.16009235      -1.82608766       0.00000000
Si       2.30845590       0.29864457      -0.73571174       0.00000000
Si       1.24672257       2.92519530       1.68345247       0.00000000
Si       2.37061854      -0.55539126       2.69083065       0.00000000
Si       0.08115678      -0.05905125      -3.67371488       0.00000000
Si      -3.35284038       0.67316796      -1.44974651       0.00000000
Si       3.51764631      -1.09082727       0.68325415       0.00000000
Si       0.69263451      -3.69277195      -0.18904659       0.00000000
