10
Lattice="16.28999089631971 0.0 0.0 0.0 16.28999089631971 0.0 0.0 0.0 34.35334932831803" Properties=species:S:1:pos:R:3:initial_magmoms:R:1 pbc="T T T"
Si       1.57964130      -1.11568581       1.37256479       0.00000000
Si      -1.14543135       1.59185880       1.38126650       0.00000000
Si       1.13723748       1.81781739      -1.20922930       0.00000000
Si      -1.58299704      -1.62860904      -1.57347158       0.00000000
Si       1.17499770       0.37651077      -3.46775067       0.00000000
Si       0.22131594      -2.46503538       2.74548342       0.00000000
Si      -2.49375465       0.25402626       2.74757898       0.00000000
Si       3.02246289      -2.36692071      -0.08771789       0.00000000
Si      -2.35160811       3.04388424      -0.06312775       0.00000000
Si      -0.38990115       3.75030009      -1.20597122       0.00000000
