10
Lattice="16.28999089631971 0.0 0.0 0.0 16.28999089631971 0.0 0.0 0.0 34.35334932831803" Properties=species:S:1:pos:R:3:initial_magmoms:R:1 pbc="T T T"
Si      -0.47654766      -1.74720024       1.46396880       0.00000000
Si      -1.89732888      -0.82499076      -1.20278014       0.00000000
Si       1.87173729       0.08972532      -1.55294402       0.00000000
Si      -0.27841239       2.77544133       1.38990294       0.00000000
Si       2.99866320       1.98065223      -0.67322296       0.00000000
Si       1.14925950       3.57006753      -0.35483594       0.00000000
Si      -3.00899106      -1.20987459       1.93825141       0.00000000
Si      -2.38039254       0.66106449      -2.92226929       0.00000000
Si       3.11212305      -1.93670181      -1.53614523       0.00000000
Si       0.13424589      -3.93494724       0.61980347       0.00000000
