10
Lattice="16.28999089631971 0.0 0.0 0.0 16.28999089631971 0.0 0.0 0.0 34.35334932831803" Properties=species:S:1:pos:R:3:initial_magmoms:R:1 pbc="T T T"
Si       1.37207412       1.33677695      -1.35174322       0.00000000
Si       1.35936792      -1.35626279       1.36008421       0.00000000
Si      -1.35519768       1.36016939       1.36087434       0.00000000
Si      -1.34930070      -1.34342394      -1.39047664       0.00000000
Si      -2.71576780       2.71381952       0.00573701       0.00000000
Si      -2.71370060       0.00136184       2.71755757       0.00000000
Si       0.00197109      -2.71426002       2.71786675       0.00000000
Si       2.71852407      -2.71463469      -0.00106495       0.00000000
Si      -2.71527584      -2.71816962       0.00133978       0.00000000
Si       0.00184077       2.71627931       2.71821028       0.00000000
