10
Lattice="16.28999089631971 0.0 0.0 0.0 16.28999089631971 0.0 0.0 0.0 34.35334932831803" Properties=species:S:1:pos:R:3:initial_magmoms:R:1 pbc="T T T"
Si      -1.31641119       1.32507747      -1.53628264       0.00000000
Si       1.40773293      -1.36612827      -1.52319401       0.00000000
Si       0.62579664       1.99980927       1.35207988       0.00000000
Si      -0.96746310      -2.01652281       1.72646289       0.00000000
Si      -2.52099153      -2.70050733      -0.08756674       0.00000000
Si       2.66152536       2.59590924      -0.23824061       0.00000000
Si      -2.71293660       2.60605791      -0.05149570       0.00000000
Si       2.58844842      -2.85555555      -0.00034353       0.00000000
Si      -2.66449014      -0.01500309      -2.92000197       0.00000000
Si       0.05046642       2.69888269      -2.92082645       0.00000000
