10
Lattice="16.28999089631971 0.0 0.0 0.0 16.28999089631971 0.0 0.0 0.0 34.35334932831803" Properties=species:S:1:pos:R:3:initial_magmoms:R:1 pbc="T T T"
Si      -2.07443376      -0.92975175      -0.60035947       0.00000000
Si       2.04387372      -1.07971749      -0.57926650       0.00000000
Si      -0.16731459      -0.99652446       2.15972757       0.00000000
Si       0.34318143       2.38857242      -0.11855347       0.00000000
Si      -2.38589856       0.52136145      -2.32991416       0.00000000
Si       3.26858850      -0.04219110       1.12139701       0.00000000
Si       1.87507674      -0.04742019       3.03244055       0.00000000
Si      -0.31415265       0.48752712      -3.53097663       0.00000000
Si       1.56636495      -3.35064123      -0.21024262       0.00000000
Si       0.16395885      -3.30755418       1.67417706       0.00000000
