10
Lattice="16.28999089631971 0.0 0.0 0.0 16.28999089631971 0.0 0.0 0.0 34.35334932831803" Properties=species:S:1:pos:R:3:initial_magmoms:R:1 pbc="T T T"
Si       2.03807448       1.23642729      -0.09636120       0.00000000
Si       0.10267587      -2.17655577      -0.97402106       0.00000000
Si      -1.54351008       1.43606124      -1.14829570       0.00000000
Si      -0.04197933       0.21576105       2.42795867       0.00000000
Si      -0.38245662       2.55795354       1.95707705       0.00000000
Si       1.15636194       3.49270632       0.18939012       0.00000000
Si      -1.63862739       0.67719159      -3.33842600       0.00000000
Si       0.58573953      -3.66261102       0.74546810       0.00000000
Si      -3.60258237       1.51130475      -0.08193278       0.00000000
Si      -0.82955196       3.72452931      -1.18316437       0.00000000
