10
Lattice="16.28999089631971 0.0 0.0 0.0 16.28999089631971 0.0 0.0 0.0 34.35334932831803" Properties=species:S:1:pos:R:3:initial_magmoms:R:1 pbc="T T T"
Si      -1.86862590       1.19282940       0.85316591       0.00000000
Si      -0.02850750       0.87410089      -2.22572039       0.00000000
Si      -0.71395812      -2.28846807       0.03486867       0.00000000
Si       1.98591390      -0.23182299       1.37255449       0.00000000
Si       0.44709534      -1.16657577       3.14024142       0.00000000
Si      -2.77303041      -2.21322456       1.10123158       0.00000000
Si      -1.86132798       0.75244066       3.14446688       0.00000000
Si      -3.74363748      -0.17632296       0.46596909       0.00000000
Si       3.38450814       1.54455331       0.69833528       0.00000000
Si      -0.80907543      -3.04733772      -2.15526163       0.00000000
