10
Lattice="16.28999089631971 0.0 0.0 0.0 16.28999089631971 0.0 0.0 0.0 34.35334932831803" Properties=species:S:1:pos:R:3:initial_magmoms:R:1 pbc="T T T"
Si       1.42767189       0.79462620      -1.74473888       0.00000000
Si      -2.24663535       0.27793998      -0.91019250       0.00000000
Si      -0.03776022       1.44130662       2.25852137       0.00000000
Si       0.27841239      -2.77544133      -1.38990294       0.00000000
Si      -0.16658154       1.29860622      -3.43451237       0.00000000
Si      -1.17499770      -0.37651077       3.46775067       0.00000000
Si      -2.75799474      -2.00511981       1.89427909       0.00000000
Si      -2.58711264       2.62013247      -1.38107412       0.00000000
Si       3.27707559      -0.79478910      -2.06312590       0.00000000
Si      -2.20465602       0.06217893      -3.33815117       0.00000000
