10
Lattice="16.28999089631971 0.0 0.0 0.0 16.28999089631971 0.0 0.0 0.0 34.35334932831803" Properties=species:S:1:pos:R:3:initial_magmoms:R:1 pbc="T T T"
Si      -1.35808101       1.35542574      -1.35764512       0.00000000
Si       1.35534429      -1.36010586      -1.35743900       0.00000000
Si      -1.36205577      -1.34976659       1.37447827       0.00000000
Si       1.34902377       1.35850455       1.38152072       0.00000000
Si       2.71502172      -2.71277354       0.00192379       0.00000000
Si      -0.00011403       2.71350675      -2.71463753       0.00000000
Si       2.71388142       2.71428867       0.00285133       0.00000000
Si       2.71438641      -0.00110772      -2.71405353       0.00000000
Si      -2.71479366       2.71365336       0.00810739       0.00000000
Si      -2.71513575      -0.00171045      -2.71477495       0.00000000
