10
Lattice="16.28999089631971 0.0 0.0 0.0 16.28999089631971 0.0 0.0 0.0 34.35334932831803" Properties=species:S:1:pos:R:3:initial_magmoms:R:1 pbc="T T T"
Si      -1.91396097      -0.90082464      -1.07110368       0.00000000
Si       0.92836710       1.99627760      -0.92785013       0.00000000
Si       1.54030095      -1.79646513       0.35559172       0.00000000
Si      -1.92505446      -0.73473422       1.57534242       0.00000000
Si      -0.36349506      -2.36749479       2.20960866       0.00000000
Si      -0.45677160      -2.18069736      -2.39917055       0.00000000
Si       2.26895265       0.57164379      -2.37728746       0.00000000
Si       3.50262693      -0.94091433      -1.00050750       0.00000000
Si       0.81673173      -3.63997185      -1.02860856       0.00000000
Si       0.90543078      -0.79491600      -3.75307116       0.00000000
