10
Lattice="16.28999089631971 0.0 0.0 0.0 16.28999089631971 0.0 0.0 0.0 34.35334932831803" Properties=species:S:1:pos:R:3:initial_magmoms:R:1 pbc="T T T"
Si       0.98634321      -1.95829976      -0.66566522       0.00000000
Si      -1.97876259      -0.42107858      -1.12496976       0.00000000
Si      -0.44716050       0.36936923       2.26052036       0.00000000
Si       0.84624921       2.18086610      -0.25266903       0.00000000
Si      -0.30077856       2.71630211       1.75490748       0.00000000
Si       3.25428588      -1.59050414      -0.54384818       0.00000000
Si       0.30872808      -2.49300272      -2.87537695       0.00000000
Si      -1.25283132      -0.86024216      -3.50964319       0.00000000
Si      -2.55717162      -0.48305877       2.83700423       0.00000000
Si       1.17173970      -0.70333052       3.60703499       0.00000000
