10
Lattice="16.28999089631971 0.0 0.0 0.0 16.28999089631971 0.0 0.0 0.0 34.35334932831803" Properties=species:S:1:pos:R:3:initial_magmoms:R:1 pbc="T T T"
Si       0.44716050      -0.36936923      -2.26052036       0.00000000
Si      -2.11001112      -0.85242801       0.57648388       0.00000000
Si       1.61890020      -1.07269976       1.34651463       0.00000000
Si       0.14638194       2.34693288      -0.50561288       0.00000000
Si       1.29340971       1.81149687      -2.51318938       0.00000000
Si      -1.99044252      -0.05967027       2.76726689       0.00000000
Si      -1.53160209      -0.79044781      -3.38549011       0.00000000
Si       0.81539595      -3.28319153       1.81643436       0.00000000
Si      -3.77722746       0.50191119      -0.52347663       0.00000000
Si      -1.55624886       2.26201311       2.88915265       0.00000000
