10
Lattice="16.28999089631971 0.0 0.0 0.0 16.28999089631971 0.0 0.0 0.0 34.35334932831803" Properties=species:S:1:pos:R:3:initial_magmoms:R:1 pbc="T T T"
Si       2.15963046       0.54050546      -0.67236413       0.00000000
Si      -1.53329625       0.90137783      -1.52151069       0.00000000
Si      -0.12096954      -2.32737252      -0.56129969       0.00000000
Si      -0.28535193       1.05264025       2.13932167       0.00000000
Si      -1.68394617      -0.72373605       2.81354088       0.00000000
Si       2.07604647      -0.11165166      -2.94226295       0.00000000
Si       1.27254222      -2.32214343      -2.47234323       0.00000000
Si      -1.09910259       3.22306121      -1.39962494       0.00000000
Si      -3.69836757       0.38218783      -0.78473400       0.00000000
Si       1.00786230      -3.54032592       1.06186262       0.00000000
