10
Lattice="16.28999089631971 0.0 0.0 0.0 16.28999089631971 0.0 0.0 0.0 34.35334932831803" Properties=species:S:1:pos:R:3:initial_magmoms:R:1 pbc="T T T"
Si      -2.19032082      -0.30986838       0.61942559       0.00000000
Si       1.05194304       1.00559799       1.82715261       0.00000000
Si      -0.52460316       1.48323708      -1.75349899       0.00000000
Si       1.35353610      -1.76280606      -0.83014915       0.00000000
Si       1.52117649       1.51917282      -2.76816008       0.00000000
Si       3.36561174      -0.57692664      -1.11030087       0.00000000
Si      -2.93061987      -1.97693811      -0.85223837       0.00000000
Si       3.12434055       1.72216251      -0.85357815       0.00000000
Si       0.52370721      -2.21861655      -3.00193476       0.00000000
Si      -2.45224773      -1.18372914       2.74033385       0.00000000
