10
Lattice="16.28999089631971 0.0 0.0 0.0 16.28999089631971 0.0 0.0 0.0 34.35334932831803" Properties=species:S:1:pos:R:3:initial_magmoms:R:1 pbc="T T T"
Si      -0.99149085      -2.10730698       0.10735428       0.00000000
Si      -1.56155940       1.63276057      -0.63426624       0.00000000
Si       0.67761513       0.53470296       2.20971172       0.00000000
Si       1.90379601       0.57102966      -1.85401695       0.00000000
Si       0.36349506       2.36749479      -2.20960866       0.00000000
Si       0.50402889      -2.84943051       1.71492016       0.00000000
Si      -2.28749067       2.07192414       1.75040719       0.00000000
Si       0.20349468      -3.03761259      -1.83714944       0.00000000
Si       1.18022679      -1.27247706      -3.23821722       0.00000000
Si       0.44466813      -1.35540945       3.53595787       0.00000000
