10
Lattice="16.28999089631971 0.0 0.0 0.0 16.28999089631971 0.0 0.0 0.0 34.35334932831803" Properties=species:S:1:pos:R:3:initial_magmoms:R:1 pbc="T T T"
Si      -1.22471478      -1.03752639      -1.70066351       0.00000000
Si       2.08837800      -1.09250514       0.07822262       0.00000000
Si      -1.39351176      -0.00522909       1.91104354       0.00000000
Si       0.80350425       2.21049177      -0.46991973       0.00000000
Si      -3.26858850       0.04219110      -1.12139701       0.00000000
Si       0.88708824       2.86264889       1.79997910       0.00000000
Si       2.44972278      -1.24597323      -2.26069212       0.00000000
Si       0.38516076      -0.93458988      -3.41637379       0.00000000
Si      -1.27254222       2.32214343       2.47234323       0.00000000
Si       3.55592781       0.52427736       0.87625137       0.00000000
