10
Lattice="16.28999089631971 0.0 0.0 0.0 16.28999089631971 0.0 0.0 0.0 34.35334932831803" Properties=species:S:1:pos:R:3:initial_magmoms:R:1 pbc="T T T"
Si       1.74395853      -1.49260383       0.21141063       0.00000000
Si      -0.80837496       0.71076528       2.04897231       0.00000000
Si      -1.15284330      -0.38555172      -2.00115242       0.00000000
Si      -1.69481160       2.63304134       0.80878136       0.00000000
Si      -1.65967407       1.95137325      -2.29666010       0.00000000
Si      -3.11816664       1.40026952      -0.55116544       0.00000000
Si      -2.43864558      -2.41421058      -1.69234999       0.00000000
Si       3.69128142      -1.15093737      -0.97893359       0.00000000
Si       0.65045970       2.03805397       3.42229429       0.00000000
Si       0.73350612      -4.01836833      -0.06534011       0.00000000
