10
Lattice="16.28999089631971 0.0 0.0 0.0 16.28999089631971 0.0 0.0 0.0 34.35334932831803" Properties=species:S:1:pos:R:3:initial_magmoms:R:1 pbc="T T T"
Si       0.97383249       1.69614738       1.26513975       0.00000000
Si      -0.22108788       1.47246939      -1.85248826       0.00000000
Si      -1.80781533      -1.06922184       1.12788430       0.00000000
Si       1.86944040      -1.63490675      -0.16158111       0.00000000
Si       2.25422618       0.34246467       2.62702408       0.00000000
Si      -0.49441779      -2.37776075       2.59872034       0.00000000
Si       1.91712123       0.97839369      -2.84172786       0.00000000
Si      -2.39089959       0.99732267      -2.65845264       0.00000000
Si       0.97901271      -3.59161010       1.15162248       0.00000000
Si       2.34100643       3.18156732      -0.03458663       0.00000000
