10
Lattice="16.28999089631971 0.0 0.0 0.0 16.28999089631971 0.0 0.0 0.0 34.35334932831803" Properties=species:S:1:pos:R:3:initial_magmoms:R:1 pbc="T T T"
Si       1.05278737       1.81436228      -1.12555377       0.00000000
Si      -0.46090926       0.87872984       2.16536152       0.00000000
Si      -1.81452681      -1.06273584      -1.21057835       0.00000000
Si       1.67783646      -1.83786291       0.19890600       0.00000000
Si      -0.34858971      -2.30082471      -2.59491605       0.00000000
Si       2.38920121       0.43980394      -2.57846078       0.00000000
Si       1.04580841      -0.51982856       3.41603026       0.00000000
Si       0.95861763      -3.68280315      -1.12445446       0.00000000
Si       3.68441423      -1.01249748      -1.09442961       0.00000000
Si       0.10383246       3.25304621       2.30157263       0.00000000
