10
Lattice="16.28999089631971 0.0 0.0 0.0 16.28999089631971 0.0 0.0 0.0 34.35334932831803" Properties=species:S:1:pos:R:3:initial_magmoms:R:1 pbc="T T T"
Si      -1.35606105      -1.34745993       1.37497983       0.00000000
Si       1.35866745       1.36547667       1.37467065       0.00000000
Si      -1.38919491       1.36971207      -1.36841491       0.00000000
Si       1.46781045      -1.35500220      -1.32930703       0.00000000
Si       0.03249855       2.63388123      -2.73112169       0.00000000
Si      -2.71322982      -2.70475902      -0.01618731       0.00000000
Si       0.00156384      -2.70484047       2.73554499       0.00000000
Si      -2.70901071       2.73952188       0.01532160       0.00000000
Si      -2.71308321       0.00988803       2.73588853       0.00000000
Si       2.71862181       0.00926901       2.73564805       0.00000000
