10
Lattice="16.28999089631971 0.0 0.0 0.0 16.28999089631971 0.0 0.0 0.0 34.35334932831803" Properties=species:S:1:pos:R:3:initial_magmoms:R:1 pbc="T T T"
Si       1.35995436      -1.35620766       1.36097740       0.00000000
Si      -1.35837423       1.36075257       1.36217977       0.00000000
Si      -1.35866745      -1.36547667      -1.37467065       0.00000000
Si       1.37195876       1.37098269      -1.37226248       0.00000000
Si       0.10914300      -2.72047887      -2.70397768       0.00000000
Si      -2.71472850      -2.71293660       0.00030918       0.00000000
Si       2.71288188      -2.71606428       0.00669891       0.00000000
Si      -2.71497285       2.71500543       0.00601184       0.00000000
Si       2.71111605       2.71976211       0.00649279       0.00000000
Si       0.00053757      -2.71381626       2.71848511       0.00000000
