10
Lattice="16.28999089631971 0.0 0.0 0.0 16.28999089631971 0.0 0.0 0.0 34.35334932831803" Properties=species:S:1:pos:R:3:initial_magmoms:R:1 pbc="T T T"
Si      -1.35671265       1.35321030       1.36011857       0.00000000
Si       1.35801733       1.35619137      -1.35644276       0.00000000
Si      -1.35692442      -1.35840681      -1.35627099       0.00000000
Si       1.35786504      -1.35726651       1.36269507       0.00000000
Si      -2.71404432       2.71353933       0.00137413       0.00000000
Si       2.71526674       2.71283886       0.00037789       0.00000000
Si       0.00000000       2.71513575      -2.71340081       0.00000000
Si      -2.71476108      -0.00081450      -2.71384741       0.00000000
Si       2.71531724      -0.00104256      -2.71364129       0.00000000
Si       0.00047241      -2.71580364      -2.71398482       0.00000000
