10
Lattice="16.28999089631971 0.0 0.0 0.0 16.28999089631971 0.0 0.0 0.0 34.35334932831803" Properties=species:S:1:pos:R:3:initial_magmoms:R:1 pbc="T T T"
Si       1.65380057      -0.79684164       1.42264170       0.00000000
Si      -0.24127119       2.29908915       0.25672272       0.00000000
Si      -2.01207564      -1.18587942       0.28015172       0.00000000
Si       1.06555840       0.08070066      -2.11111756       0.00000000
Si      -1.84443525       2.09609946      -1.65785921       0.00000000
Si       1.03904838      -3.09291714       1.41587408       0.00000000
Si      -3.36561174       0.57692664       1.11030087       0.00000000
Si       1.88237859       3.14089119      -0.20677293       0.00000000
Si      -1.34384355      -2.95845948       1.72464216       0.00000000
Si       3.70350611      -0.33303276       0.36325252       0.00000000
