10
Lattice="16.28999089631971 0.0 0.0 0.0 16.28999089631971 0.0 0.0 0.0 34.35334932831803" Properties=species:S:1:pos:R:3:initial_magmoms:R:1 pbc="T T T"
Si      -1.48302531      -1.20006801      -1.41954989       0.00000000
Si       1.24761852       1.56700026      -1.46321303       0.00000000
Si       1.27001727      -1.73020977       1.38454381       0.00000000
Si      -2.72766276      -0.05229090       2.28078884       0.00000000
Si      -3.17407392      -1.93104918       0.20687599       0.00000000
Si      -1.53038034       1.89609084       2.82869072       0.00000000
Si       0.89243136      -0.68075910       3.64612912       0.00000000
Si      -0.05804127      -2.46123981      -2.92402132       0.00000000
Si       2.89560844      -2.55153528      -0.15036469       0.00000000
Si       1.96683735       3.41194050      -0.13985256       0.00000000
