10
Lattice="16.28999089631971 0.0 0.0 0.0 16.28999089631971 0.0 0.0 0.0 34.35334932831803" Properties=species:S:1:pos:R:3:initial_magmoms:R:1 pbc="T T T"
Si       1.34469063      -1.21860603       1.46864086       0.00000000
Si       1.19728242       1.94838174       0.54790187       0.00000000
Si      -2.15995626      -0.03665250       1.09491056       0.00000000
Si      -0.44641116      -1.87875828      -2.07391286       0.00000000
Si       1.03827573      -3.26510244       0.34779350       0.00000000
Si      -2.46049047      -0.22483458      -2.45715904       0.00000000
Si       2.72766276       0.05229090      -2.28078884       0.00000000
Si      -3.65547600       0.70547103      -0.51265532       0.00000000
Si       0.44017209      -1.10521134       3.62833408       0.00000000
Si       3.62009412      -0.62846820       1.36534028       0.00000000
