10
Lattice="16.28999089631971 0.0 0.0 0.0 16.28999089631971 0.0 0.0 0.0 34.35334932831803" Properties=species:S:1:pos:R:3:initial_magmoms:R:1 pbc="T T T"
Si       1.57043486      -1.73630223       0.34081977       0.00000000
Si       1.02625601       2.06580006      -0.61427258       0.00000000
Si      -1.43280324      -0.41392890      -1.92519713       0.00000000
Si      -1.45425717       0.51570882       1.97353232       0.00000000
Si      -1.91759364       1.80744066      -2.52462905       0.00000000
Si      -0.17029566       3.55972338       0.80345658       0.00000000
Si       1.52357179      -1.99316295       2.68169265       0.00000000
Si      -2.29355055       2.62438416       1.29378221       0.00000000
Si       0.74458562      -3.71227923      -0.64419437       0.00000000
Si      -2.98066275      -2.05928406      -1.37035587       0.00000000
