10
Lattice="16.28999089631971 0.0 0.0 0.0 16.28999089631971 0.0 0.0 0.0 34.35334932831803" Properties=species:S:1:pos:R:3:initial_magmoms:R:1 pbc="T T T"
Si      -0.83888613       0.89629209      -2.01387774       0.00000000
Si       0.85444308       1.90456164       1.22074410       0.00000000
Si      -1.86758334      -0.87397479       1.29870563       0.00000000
Si       1.77530049      -1.87937730      -0.31149656       0.00000000
Si      -1.84933854      -1.62947241      -2.29062848       0.00000000
Si       2.10234950       0.43538283       2.67657802       0.00000000
Si      -0.61831953      -2.30498613       2.67871480       0.00000000
Si       1.10843676       1.23795855      -3.20422196       0.00000000
Si       0.35541522      -2.29092786      -2.92688722       0.00000000
Si      -3.04916220      -2.29475601      -0.22939201       0.00000000
