10
Lattice="16.28999089631971 0.0 0.0 0.0 16.28999089631971 0.0 0.0 0.0 34.35334932831803" Properties=species:S:1:pos:R:3:initial_magmoms:R:1 pbc="T T T"
Si      -0.91570977       1.76689485       1.16361730       0.00000000
Si      -1.19728242      -1.94838174      -0.54790187       0.00000000
Si       2.19944322      -0.23361489       0.96845581       0.00000000
Si       0.14740821      -3.16698777       0.92073898       0.00000000
Si       0.06882525       1.12673043       3.17803012       0.00000000
Si       2.42281170      -2.57684994       0.81743840       0.00000000
Si      -3.18365244       1.39909923       1.04180025       0.00000000
Si       1.53038034      -1.89609084      -2.82869072       0.00000000
Si       3.68477749       0.77398677      -0.59682107       0.00000000
Si      -1.35203742      -0.80239653       3.52372807       0.00000000
