10
Lattice="16.28999089631971 0.0 0.0 0.0 16.28999089631971 0.0 0.0 0.0 34.35334932831803" Properties=species:S:1:pos:R:3:initial_magmoms:R:1 pbc="T T T"
Si       0.22336848      -2.34323505      -0.15101741       0.00000000
Si       1.48533427       1.00760166      -1.56527688       0.00000000
Si      -2.19944322       0.23361489      -0.96845581       0.00000000
Si       0.29318742       1.25211456       2.05093045       0.00000000
Si       0.66574642       3.06749889      -0.71987484       0.00000000
Si      -2.13061797       1.36034532       2.20957431       0.00000000
Si      -2.05203501      -2.93337288      -0.04771683       0.00000000
Si       3.57168743       0.27518697      -0.51169342       0.00000000
Si      -3.11515299       2.00050974       0.19516149       0.00000000
Si       1.54893043      -3.11727069       1.68334941       0.00000000
