10
Lattice="16.28999089631971 0.0 0.0 0.0 16.28999089631971 0.0 0.0 0.0 34.35334932831803" Properties=species:S:1:pos:R:3:initial_magmoms:R:1 pbc="T T T"
Si      -1.30546431       1.86934266      -0.54680257       0.00000000
Si       2.04129990       0.15004719       1.20439475       0.00000000
Si       0.97814934      -1.12562271      -1.85621556       0.00000000
Si      -1.65363048      -0.88322751       1.49382188       0.00000000
Si      -0.33088248      -0.89796996       3.43921878       0.00000000
Si      -3.28719168       0.64985697      -1.34349154       0.00000000
Si       1.87387128      -1.55942541       2.80296004       0.00000000
Si      -2.21723190       2.73484665       1.50340647       0.00000000
Si       1.81744272      -3.23429805      -1.17646546       0.00000000
Si       3.10140423      -0.19028349      -2.34654119       0.00000000
