10
Lattice="16.28999089631971 0.0 0.0 0.0 16.28999089631971 0.0 0.0 0.0 34.35334932831803" Properties=species:S:1:pos:R:3:initial_magmoms:R:1 pbc="T T T"
Si      -2.12325489      -0.93533922       0.49032563       0.00000000
Si       1.19655167      -1.49392332      -1.41772917       0.00000000
Si      -0.31161141       1.98711936      -1.28505646       0.00000000
Si       0.89045931      -0.06312375       2.22853737       0.00000000
Si      -1.28396151      -3.04401456       1.17007573       0.00000000
Si       0.17029566      -3.55972338      -0.80345658       0.00000000
Si       0.87906609       1.47315357      -3.29301085       0.00000000
Si      -1.06010433       0.34033068       3.55093594       0.00000000
Si       0.48910725      -0.83891871      -3.59459907       0.00000000
Si      -3.22740738      -1.04493834      -1.58334676       0.00000000
