10
Lattice="16.28999089631971 0.0 0.0 0.0 16.28999089631971 0.0 0.0 0.0 34.35334932831803" Properties=species:S:1:pos:R:3:initial_magmoms:R:1 pbc="T T T"
Si      -1.70705191       1.56494772      -0.34061365       0.00000000
Si      -1.05109596      -2.03980122      -0.50801761       0.00000000
Si       0.84115044       0.29436030       2.17614848       0.00000000
Si       1.74641832       0.81107910      -1.37351638       0.00000000
Si      -0.44636229       3.46687038       0.45033831       0.00000000
Si       2.28970611      -1.74711879       2.09960918       0.00000000
Si       2.76192063      -1.17691992      -2.01942842       0.00000000
Si      -3.11724530      -1.71175320       0.67116176       0.00000000
Si       1.23294123       2.71422351       2.06281672       0.00000000
Si      -1.66018883       1.82180844      -2.68148653       0.00000000
