10
Lattice="16.28999089631971 0.0 0.0 0.0 16.28999089631971 0.0 0.0 0.0 34.35334932831803" Properties=species:S:1:pos:R:3:initial_magmoms:R:1 pbc="T T T"
Si       1.70705191      -1.56494772       0.34061365       0.00000000
Si       0.04686307       0.25686072      -2.34087288       0.00000000
Si      -2.03374201      -1.03338873       0.73444067       0.00000000
Si       1.26068962       1.90192266       0.79095196       0.00000000
Si       2.35892884       0.72208683      -2.51617812       0.00000000
Si       0.65595595      -3.60474894      -0.16740396       0.00000000
Si      -1.52357179       1.99316295      -2.68169265       0.00000000
Si       3.45347023      -0.75386862      -1.03290273       0.00000000
Si      -1.41019339      -3.27670092       1.01177541       0.00000000
Si      -2.79735205       0.31467393       2.52085018       0.00000000
