10
Lattice="16.28999089631971 0.0 0.0 0.0 16.28999089631971 0.0 0.0 0.0 34.35334932831803" Properties=species:S:1:pos:R:3:initial_magmoms:R:1 pbc="T T T"
Si      -1.35580923      -1.35749198      -1.35750771       0.00000000
Si      -1.35714826       1.35706451       1.35774818       0.00000000
Si       1.35755810      -1.35736719       1.35750771       0.00000000
Si       1.35850292       1.35880754      -1.35668323       0.00000000
Si      -0.00206720       2.71245767      -2.71182056       0.00000000
Si      -2.71441152       2.71470569      -0.00003435       0.00000000
Si       0.00095948       2.71421699       2.71522154       0.00000000
Si       2.71467800       0.00064508       2.71515283       0.00000000
Si      -2.71475361      -2.71527977      -0.00003435       0.00000000
Si      -2.71595907       0.00057830       2.71439706       0.00000000
