10
Lattice="16.28999089631971 0.0 0.0 0.0 16.28999089631971 0.0 0.0 0.0 34.35334932831803" Properties=species:S:1:pos:R:3:initial_magmoms:R:1 pbc="T T T"
Si       1.42575130      -1.68288732      -0.85065811       0.00000000
Si      -0.63834646       1.90495260      -1.29130877       0.00000000
Si      -2.13138916      -1.07724141       0.03425031       0.00000000
Si       0.29667511       1.08079263       2.30401172       0.00000000
Si      -2.75633872       0.59893443       1.62965510       0.00000000
Si      -2.58891010       2.30840703       0.03108980       0.00000000
Si      -2.81276728      -1.07593821      -2.34977041       0.00000000
Si       0.92183644       3.64340511      -1.03644113       0.00000000
Si       2.60801434      -0.91722474      -2.80199815       0.00000000
Si       0.16506168      -3.58480998      -1.64161007       0.00000000
