10
Lattice="16.28999089631971 0.0 0.0 0.0 16.28999089631971 0.0 0.0 0.0 34.35334932831803" Properties=species:S:1:pos:R:3:initial_magmoms:R:1 pbc="T T T"
Si       0.09511731       0.75886965       2.19013030       0.00000000
Si      -0.89884962      -2.17474758      -0.17008353       0.00000000
Si      -1.21389822       0.86638365      -1.83618755       0.00000000
Si       2.31557463       0.26277399      -0.71973742       0.00000000
Si       0.53872659      -2.88287388      -1.91616219       0.00000000
Si       0.40845546       0.32954670      -3.47982446       0.00000000
Si       2.64684807      -2.04825573      -1.20528793       0.00000000
Si      -0.86421708       3.15232677      -1.59458031       0.00000000
Si       1.63862739      -0.67719159       3.33842600       0.00000000
Si       0.80907543       3.04733772       2.15526163       0.00000000
