10
Lattice="10.86 0.0 0.0 0.0 10.86 0.0 0.0 0.0 10.86" Properties=species:S:1:pos:R:3:initial_magmoms:R:1 pbc="T T T"
Si       1.39546656      -1.18851840      -1.31925108       0.00000000
Si      -1.62465600      -1.45672782       0.94980474       0.00000000
Si      -1.31953344       1.52648160      -1.31925108       0.00000000
Si       1.39546656       1.52648160       1.39574892       0.00000000
Si      -0.35391654      -2.99743602       1.83169104       0.00000000
Si       2.49237000       0.30500310       2.68045434       0.00000000
Si       0.03796656      -2.54601840      -2.67675108       0.00000000
Si      -2.67703344       0.16898160      -2.67675108       0.00000000
Si       2.75296656       0.16898160      -2.67675108       0.00000000
Si      -2.52809940       0.14038722       2.93417652       0.00000000
