10
Lattice="10.86 0.0 0.0 0.0 10.86 0.0 0.0 0.0 10.86" Properties=species:S:1:pos:R:3:initial_magmoms:R:1 pbc="T T T"
Si       1.62878280      -1.58119428      -1.03636980       0.00000000
Si      -1.08621720      -1.58119428       1.67863020       0.00000000
Si       1.62878280       1.13380572       1.67863020       0.00000000
Si      -2.21699298       2.43025080       0.36613404       0.00000000
Si       0.01068624       2.62732722      -2.46666438       0.00000000
Si       2.98628280      -0.22369428      -2.39386980       0.00000000
Si      -3.38064198      -1.45270962      -1.20469980       0.00000000
Si       2.98628280       2.49130572       0.32113020       0.00000000
Si      -2.44371720      -0.22369428       3.03613020       0.00000000
Si       0.27128280       2.49130572       3.03613020       0.00000000
