10
Lattice="10.86 0.0 0.0 0.0 10.86 0.0 0.0 0.0 10.86" Properties=species:S:1:pos:R:3:initial_magmoms:R:1 pbc="T T T"
Si      -1.09690344       1.22147850      -1.28470542       0.00000000
Si       1.61809656       1.22147850       1.43029458       0.00000000
Si       1.61809656      -1.49352150      -1.28470542       0.00000000
Si      -2.45440344       2.57897850       0.07279458       0.00000000
Si      -0.01068624      -2.62732722       2.46666438       0.00000000
Si      -2.22767922      -0.19707642       2.83279842       0.00000000
Si      -2.49237000      -0.30500310      -2.68045434       0.00000000
Si       0.26059656       2.57897850      -2.64220542       0.00000000
Si       0.26059656       2.57897850       2.78779458       0.00000000
Si       2.97559656       2.57897850       0.07279458       0.00000000
