10
Lattice="16.28999089631971 0.0 0.0 0.0 16.28999089631971 0.0 0.0 0.0 34.25627252547053" Properties=species:S:1:pos:R:3:initial_magmoms:R:1 pbc="T T T"
Si      -1.29134088      -1.81467342       0.75089791       0.00000000
Si       1.17532350       0.86538996       1.85189513       0.00000000
Si      -1.62133262       1.53596781      -0.78553102       0.00000000
Si       1.79175339      -0.75417813      -1.43633205       0.00000000
Si       1.37502261      -1.16967087       3.15860137       0.00000000
Si       0.28233828      -3.05036766       2.04705322       0.00000000
Si      -0.20916686       2.65182208       2.70312972       0.00000000
Si      -2.97260639       0.42461514      -2.33473756       0.00000000
Si       3.41713701       1.38494322       1.02950433       0.00000000
Si       2.43134766       1.19286783      -2.75807681       0.00000000
