10
Lattice="16.28999089631971 0.0 0.0 0.0 16.28999089631971 0.0 0.0 0.0 34.25627252547053" Properties=species:S:1:pos:R:3:initial_magmoms:R:1 pbc="T T T"
Si       0.61151031      -0.23908833      -2.22247969       0.00000000
Si      -2.25087564       0.49293540      -0.35986234       0.00000000
Si       0.58367070      -2.10595491       0.87309011       0.00000000
Si       0.50090121       2.18708955       0.92762612       0.00000000
Si      -2.91939932      -1.28384748       1.02902475       0.00000000
Si       0.53680437       2.05967080      -2.69672379       0.00000000
Si       1.90136880       2.87022699      -0.81406652       0.00000000
Si      -1.25100684      -2.56450212       2.16766962       0.00000000
Si       2.86969527      -0.55607544      -2.23398980       0.00000000
Si      -2.59009045       0.07644897      -2.65219061       0.00000000
