10
Lattice="16.28999089631971 0.0 0.0 0.0 16.28999089631971 0.0 0.0 0.0 34.25627252547053" Properties=species:S:1:pos:R:3:initial_magmoms:R:1 pbc="T T T"
Si       1.37300265      -1.27374835       1.36861079       0.00000000
Si      -1.19852046      -1.49644894      -1.39044373       0.00000000
Si      -1.35625653       1.44911605       1.34317207       0.00000000
Si       1.00509300       1.58420902      -1.61245876       0.00000000
Si      -1.42157943       0.35490860      -2.81721828       0.00000000
Si       2.06835759      -0.25708226      -2.69519737       0.00000000
Si       2.57771331       2.69885227      -0.04225514       0.00000000
Si      -0.01449810      -2.60947948       2.71888761       0.00000000
Si      -2.74839993      -2.63178049      -0.04613295       0.00000000
Si       2.73543309      -2.66797687      -0.03182409       0.00000000
