10
Lattice="16.28999089631971 0.0 0.0 0.0 16.28999089631971 0.0 0.0 0.0 34.25627252547053" Properties=species:S:1:pos:R:3:initial_magmoms:R:1 pbc="T T T"
Si       1.35744570      -1.35709058      -1.35754258       0.00000000
Si      -1.35876519      -1.35514555       1.35843325       0.00000000
Si       1.35865116       1.35702216       1.35733704       0.00000000
Si      -1.35804843       1.35821133      -1.35750833       0.00000000
Si       2.71414206       0.00045612       2.71231041       0.00000000
Si      -2.71409319       0.00035838       2.71292702       0.00000000
Si      -2.71445157      -2.71491668       0.00027405       0.00000000
Si      -2.71580364       0.00096111      -2.71368066       0.00000000
Si      -0.00053757       2.71490769      -2.71460558       0.00000000
Si       2.71490769      -2.71468692       0.00020554       0.00000000
