10
Lattice="16.28999089631971 0.0 0.0 0.0 16.28999089631971 0.0 0.0 0.0 34.25627252547053" Properties=species:S:1:pos:R:3:initial_magmoms:R:1 pbc="T T T"
Si      -1.35529542      -1.35749486      -1.35822771       0.00000000
Si      -1.35744570       1.35709058       1.35754258       0.00000000
Si       1.35746199      -1.35759634       1.35774812       0.00000000
Si       1.35821133       1.35850781      -1.35788515       0.00000000
Si       2.71305063       0.00033069       2.71467409       0.00000000
Si      -0.00117288      -2.71590531      -2.71213912       0.00000000
Si       0.00120546       2.71411274       2.71487963       0.00000000
Si       2.71515204       2.71458515       0.00027405       0.00000000
Si       2.71474479      -2.71507452       0.00030831       0.00000000
Si      -2.71495656      -2.71513968       0.00000000       0.00000000
