10
Lattice="16.28999089631971 0.0 0.0 0.0 16.28999089631971 0.0 0.0 0.0 34.25627252547053" Properties=species:S:1:pos:R:3:initial_magmoms:R:1 pbc="T T T"
Si      -1.40234094       1.14821694       1.44236116       0.00000000
Si       1.51865154      -1.61762534       0.78070089       0.00000000
Si       1.87479981       1.54955367      -0.31070457       0.00000000
Si      -1.69754832      -1.08288589      -1.72165271       0.00000000
Si       0.19574064       2.37803049      -1.93568602       0.00000000
Si      -1.36906047       3.10919085      -0.25993674       0.00000000
Si      -0.07649784      -2.78654201      -1.97175789       0.00000000
Si      -0.09262494      -3.20499953       1.32859602       0.00000000
Si      -1.07460243       0.78804504      -3.21666579       0.00000000
Si      -2.03302458      -0.72168610       2.85933841       0.00000000
