10
Lattice="16.28999089631971 0.0 0.0 0.0 16.28999089631971 0.0 0.0 0.0 34.25627252547053" Properties=species:S:1:pos:R:3:initial_magmoms:R:1 pbc="T T T"
Si       1.62105048      -1.70365611      -0.25010519       0.00000000
Si       0.62294589       1.87093093      -1.49501308       0.00000000
Si      -1.97723133      -0.95622204       1.34483350       0.00000000
Si       1.69754832       1.08288589       1.72165271       0.00000000
Si      -2.05671024      -0.63590752      -1.72158419       0.00000000
Si       1.94983155       0.65956418      -3.03024305       0.00000000
Si       3.37276305      -0.58605637      -1.41779940       0.00000000
Si      -0.78058422      -2.06855211      -3.03993758       0.00000000
Si       0.60287661      -3.40731318      -1.54811033       0.00000000
Si       0.29520738       2.23110284       3.16401387       0.00000000
