10
Lattice="16.28999089631971 0.0 0.0 0.0 16.28999089631971 0.0 0.0 0.0 34.25627252547053" Properties=species:S:1:pos:R:3:initial_magmoms:R:1 pbc="T T T"
Si      -1.20218376      -1.32879159      -1.58079084       0.00000000
Si       1.29954290       1.39287645      -1.51001734       0.00000000
Si      -2.13832218       0.01032786       1.32979499       0.00000000
Si       1.50544849      -0.31630293       2.01187201       0.00000000
Si      -1.90993638      -2.46004738       1.75714222       0.00000000
Si       0.38039593      -2.53008461       2.65678096       0.00000000
Si      -1.97208273      -3.31040656      -0.45194326       0.00000000
Si      -1.47621513       0.44092143       3.58879188       0.00000000
Si       2.30393542       3.19075488      -0.22232333       0.00000000
Si      -2.64893223       0.05662404      -2.92504198       0.00000000
