10
Lattice="16.28999089631971 0.0 0.0 0.0 16.28999089631971 0.0 0.0 0.0 34.25627252547053" Properties=species:S:1:pos:R:3:initial_magmoms:R:1 pbc="T T T"
Si      -1.35793440      -1.35659862      -1.35761110       0.00000000
Si       1.35708732       1.35817875      -1.35733704       0.00000000
Si      -1.35568638       1.35718506       1.36271528       0.00000000
Si       1.35707103      -1.35694071       1.36172185       0.00000000
Si      -0.00048870      -2.71396287      -2.71477686       0.00000000
Si      -2.71395310      -0.00003258      -2.71484537       0.00000000
Si       2.71479366       0.00061902      -2.71467409       0.00000000
Si      -0.00030951       2.71520091      -2.71460558       0.00000000
Si      -2.71513901      -2.71557558       0.00017128       0.00000000
Si       2.70238068       0.01630629       2.72837661       0.00000000
