10
Lattice="16.28999089631971 0.0 0.0 0.0 16.28999089631971 0.0 0.0 0.0 34.25627252547053" Properties=species:S:1:pos:R:3:initial_magmoms:R:1 pbc="T T T"
Si      -1.30360725       1.41683904      -1.33459087       0.00000000
Si      -1.32810741      -1.22916195       1.49453349       0.00000000
Si       1.41102351      -1.32913368      -1.34229853       0.00000000
Si       1.79778069       0.82991034       1.28786529       0.00000000
Si       0.48899322       2.34463599       2.62803993       0.00000000
Si       0.35095176      -2.05763877       3.11951494       0.00000000
Si      -2.64891690       0.04359204      -2.70124562       0.00000000
Si       0.06571386      -2.67118533      -2.70792560       0.00000000
Si       2.72251512      -2.65670352       0.14853528       0.00000000
Si      -2.59845048      -2.81914740       0.21355372       0.00000000
