10
Lattice="16.28999089631971 0.0 0.0 0.0 16.28999089631971 0.0 0.0 0.0 34.25627252547053" Properties=species:S:1:pos:R:3:initial_magmoms:R:1 pbc="T T T"
Si       1.41488424       1.82739591       0.35386749       0.00000000
Si       1.56480111      -0.73116036      -1.67574928       0.00000000
Si      -0.03328047      -1.96097391       1.70229790       0.00000000
Si      -2.39331051      -1.19185785       0.44553733       0.00000000
Si      -0.69255306       2.98343205       0.33958262       0.00000000
Si      -1.59482358       2.31519996      -1.78865801       0.00000000
Si       1.36906047      -3.10919085       0.25993674       0.00000000
Si       1.30657203      -0.76657482       3.24177565       0.00000000
Si       3.24386028      -1.55963718      -0.05076782       0.00000000
Si       0.29445804      -2.32114581      -2.95672905       0.00000000
