10
Lattice="16.28999089631971 0.0 0.0 0.0 16.28999089631971 0.0 0.0 0.0 34.25627252547053" Properties=species:S:1:pos:R:3:initial_magmoms:R:1 pbc="T T T"
Si       2.10743730      -1.15603614       0.01428487       0.00000000
Si      -0.90227052      -0.66823209      -2.12824063       0.00000000
Si      -2.00736783      -0.27774450       1.58860127       0.00000000
Si      -0.50181345       2.84330547      -0.08324279       0.00000000
Si       0.69255306      -2.98343205      -0.33958262       0.00000000
Si       0.96026292       0.37188441      -3.40993979       0.00000000
Si       2.59260237       1.40908500      -2.01543466       0.00000000
Si      -2.73908205       1.09243998      -2.06873745       0.00000000
Si       1.78502562       3.12867369      -0.58389849       0.00000000
Si      -3.64242119       0.95112423       0.25065329       0.00000000
