10
Lattice="16.28999089631971 0.0 0.0 0.0 16.28999089631971 0.0 0.0 0.0 34.25627252547053" Properties=species:S:1:pos:R:3:initial_magmoms:R:1 pbc="T T T"
Si       0.35564328      -2.11388814       0.87127452       0.00000000
Si       1.38489435       1.80398718       0.42707319       0.00000000
Si      -0.18990882      -0.26047710      -2.29952209       0.00000000
Si      -2.02544973       0.95962761       0.64425808       0.00000000
Si      -1.50319233       0.47749248       2.88513340       0.00000000
Si       0.09710469       3.25988964      -0.95253045       0.00000000
Si      -2.30288472      -1.50333894      -2.12036169       0.00000000
Si       1.83282048      -1.58208480       2.63280155       0.00000000
Si      -3.55571604      -0.41557419      -0.42337351       0.00000000
Si       0.83735487       0.35100063       3.54672516       0.00000000
