10
Lattice="16.28999089631971 0.0 0.0 0.0 16.28999089631971 0.0 0.0 0.0 34.25627252547053" Properties=species:S:1:pos:R:3:initial_magmoms:R:1 pbc="T T T"
Si      -0.73275678       1.86815349      -1.27573856       0.00000000
Si      -1.46898333      -1.49027436      -1.15262145       0.00000000
Si       2.41078968      -0.16967664       0.00568654       0.00000000
Si      -0.17940177      -0.13903515       2.48632165       0.00000000
Si       1.51379712       1.55391939       2.87807660       0.00000000
Si       2.92104135       2.01694635       0.88185972       0.00000000
Si      -3.05299035       2.00974617      -0.98750612       0.00000000
Si      -3.47441265      -0.30910275      -1.53016004       0.00000000
Si      -0.46056717      -2.27297628      -3.10454495       0.00000000
Si      -1.14258060       1.48045149      -3.62150664       0.00000000
