10
Lattice="16.28999089631971 0.0 0.0 0.0 16.28999089631971 0.0 0.0 0.0 34.25627252547053" Properties=species:S:1:pos:R:3:initial_magmoms:R:1 pbc="T T T"
Si      -2.28683907      -0.28536822       0.50065570       0.00000000
Si       0.80757675      -1.71958869      -1.43153617       0.00000000
Si       1.44528138       0.37703205       1.98758430       0.00000000
Si      -1.91989053       1.04814747      -1.33404277       0.00000000
Si       1.81804545      -0.19997604      -2.89352619       0.00000000
Si       3.34353879       1.17219582       0.73318741       0.00000000
Si      -1.78502562      -3.12867369       0.58389849       0.00000000
Si       3.37092228       0.99144198      -1.57880397       0.00000000
Si      -0.81808380       2.57849523      -2.76551043       0.00000000
Si       2.28942918      -3.26946816      -0.29792697       0.00000000
