10
Lattice="16.28999089631971 0.0 0.0 0.0 16.28999089631971 0.0 0.0 0.0 34.25627252547053" Properties=species:S:1:pos:R:3:initial_magmoms:R:1 pbc="T T T"
Si      -2.26387017       0.71633646      -0.19769306       0.00000000
Si      -0.03948696      -1.91070297       1.47586381       0.00000000
Si       0.97862175      -0.53890578      -2.14112100       0.00000000
Si       1.39147551       1.84596651       0.77624757       0.00000000
Si       0.20587302       1.20915783      -3.51596301       0.00000000
Si       1.55590677      -3.36528594       0.56084401       0.00000000
Si      -3.35655450      -1.16436033      -1.30924121       0.00000000
Si      -3.01615866       1.17001296       2.04331929       0.00000000
Si       0.89565678       2.25893430       3.01616371       0.00000000
Si      -2.46356928       2.75139729      -1.50439930       0.00000000
