10
Lattice="16.28999089631971 0.0 0.0 0.0 16.28999089631971 0.0 0.0 0.0 34.25627252547053" Properties=species:S:1:pos:R:3:initial_magmoms:R:1 pbc="T T T"
Si       2.17031670       0.67342860       0.51929113       0.00000000
Si      -0.57959820      -2.10382092       0.85770903       0.00000000
Si      -1.59539373       1.45458297       0.91501981       0.00000000
Si      -0.03205872      -0.65083437      -2.26194294       0.00000000
Si       3.28877181      -1.22541525      -0.34845500       0.00000000
Si      -2.92014540      -1.97732907       0.19611727       0.00000000
Si       2.31241437      -0.83593764      -2.56165123       0.00000000
Si      -3.22071219      -0.18380007       1.64810445       0.00000000
Si      -0.16977438      -1.71611892       3.20347712       0.00000000
Si      -1.55590677       3.36528594      -0.56084401       0.00000000
