10
Lattice="16.28999089631971 0.0 0.0 0.0 16.28999089631971 0.0 0.0 0.0 34.25627252547053" Properties=species:S:1:pos:R:3:initial_magmoms:R:1 pbc="T T T"
Si      -1.48618557       1.80731034       0.23537498       0.00000000
Si       0.50485968       0.07925085      -2.29661031       0.00000000
Si      -0.96525092      -1.90682758       0.99428887       0.00000000
Si       1.67272236       0.77747283       1.48100226       0.00000000
Si      -1.61877965       2.10958758       2.56322702       0.00000000
Si       0.71887770       2.52188748      -2.60108023       0.00000000
Si      -1.41074658      -0.96922731      -3.27575789       0.00000000
Si       0.41923944      -3.69325970       0.14305427       0.00000000
Si      -0.53395362       3.60965223      -0.90409205       0.00000000
Si      -0.83044791      -1.53428342       3.34916912       0.00000000
