10
Lattice="16.28999089631971 0.0 0.0 0.0 16.28999089631971 0.0 0.0 0.0 34.25627252547053" Properties=species:S:1:pos:R:3:initial_magmoms:R:1 pbc="T T T"
Si      -1.35407367       1.35592777       1.35932391       0.00000000
Si      -1.35755973      -1.35645201      -1.35853602       0.00000000
Si       1.35780408       1.35826010      -1.35812494       0.00000000
Si       1.35757602      -1.35622395       1.36134503       0.00000000
Si      -2.71417464      -2.71490769      -0.00198686       0.00000000
Si       2.71339272       2.71618713      -0.00119897       0.00000000
Si       0.00040725      -2.71432125      -2.71573603       0.00000000
Si      -2.71461447       0.00071676      -2.71587306       0.00000000
Si       2.71508688       0.00078192      -2.71556475       0.00000000
Si       0.00034209       2.71585644      -2.71587306       0.00000000
