10
Lattice="16.28999089631971 0.0 0.0 0.0 16.28999089631971 0.0 0.0 0.0 34.25627252547053" Properties=species:S:1:pos:R:3:initial_magmoms:R:1 pbc="T T T"
Si      -0.49581873       0.41296779       2.23991614       0.00000000
Si       2.24023338      -0.58424085       0.40895161       0.00000000
Si      -0.25440093       2.03491422      -1.27351190       0.00000000
Si      -1.39147551      -1.84596651      -0.77624757       0.00000000
Si      -2.75400369       0.72995490       2.25142626       0.00000000
Si      -1.61323128       1.42498404      -3.10303767       0.00000000
Si      -0.41285376      -2.38487229      -2.91736857       0.00000000
Si       2.41370559      -1.62393381       2.53595902       0.00000000
Si       0.13245399      -1.33073010       3.63877181       0.00000000
Si       2.92164408      -2.50452234      -0.82732370       0.00000000
