10
Lattice="16.28999089631971 0.0 0.0 0.0 16.28999089631971 0.0 0.0 0.0 34.25627252547053" Properties=species:S:1:pos:R:3:initial_magmoms:R:1 pbc="T T T"
Si      -2.24078724       0.19808640      -0.43700751       0.00000000
Si       1.23365799       1.79779698       0.81680702       0.00000000
Si       1.16766720      -0.08004906      -2.04359334       0.00000000
Si      -0.09285300      -2.02739313       1.26669490       0.00000000
Si      -2.35825443      -2.07612792      -1.09579026       0.00000000
Si       3.25495377       0.70123563       0.58208291       0.00000000
Si      -2.79762831       1.51003413       1.42160185       0.00000000
Si       0.96436800      -3.32639261      -0.48794662       0.00000000
Si      -2.15622585       1.48339998      -2.39639888       0.00000000
Si       0.91417851      -2.29014594      -2.67664961       0.00000000
