10
Lattice="16.28999089631971 0.0 0.0 0.0 16.28999089631971 0.0 0.0 0.0 34.25627252547053" Properties=species:S:1:pos:R:3:initial_magmoms:R:1 pbc="T T T"
Si      -0.02738349       0.18075384       2.31199138       0.00000000
Si       1.17019215       1.54880433      -1.31033741       0.00000000
Si      -1.55287683      -1.19141802      -1.31472222       0.00000000
Si      -0.13742244      -2.49390126      -2.67565617       0.00000000
Si       2.55129093       0.21727602      -2.69638123       0.00000000
Si      -2.56334553      -2.71103067       0.14726780       0.00000000
Si       2.89833309       2.53285065       0.03521547       0.00000000
Si      -3.37092228      -0.99144198       1.57880397       0.00000000
Si      -2.86953237       0.23258862      -2.67952713       0.00000000
Si      -0.16127100       2.95772643      -2.66551631       0.00000000
