10
Lattice="16.28999089631971 0.0 0.0 0.0 16.28999089631971 0.0 0.0 0.0 34.25627252547053" Properties=species:S:1:pos:R:3:initial_magmoms:R:1 pbc="T T T"
Si       0.53985060       1.76640615      -1.47767940       0.00000000
Si       0.90911232      -0.14213025       2.21158619       0.00000000
Si       0.79022790      -1.91308131      -1.23569295       0.00000000
Si      -2.42538552      -0.02248020       0.12154132       0.00000000
Si      -1.45367073       1.70425980      -2.89195040       0.00000000
Si       2.77102674       1.06626195      -2.17373299       0.00000000
Si       0.46431387      -3.68479800       0.26185509       0.00000000
Si      -3.19813425       1.72558341      -1.25330069       0.00000000
Si      -3.16794888      -2.04379227      -0.81804025       0.00000000
Si       0.22770162       1.77815124       3.44786150       0.00000000
