10
Lattice="16.28999089631971 0.0 0.0 0.0 16.28999089631971 0.0 0.0 0.0 34.25627252547053" Properties=species:S:1:pos:R:3:initial_magmoms:R:1 pbc="T T T"
Si      -0.17347221       1.03969296      -2.12700741       0.00000000
Si       0.06884154      -2.37615714       0.05189828       0.00000000
Si       1.58544054       1.45873692       1.04916744       0.00000000
Si      -2.28125160       0.29320371       1.10281280       0.00000000
Si      -0.25301628       0.99243567       2.41421216       0.00000000
Si       0.50793849      -0.88058853      -3.36328272       0.00000000
Si      -2.90952432       2.03690160      -0.29604287       0.00000000
Si      -0.07895763      -2.91389004      -2.23207145       0.00000000
Si       2.19040227      -1.58718357       2.60316986       0.00000000
Si      -1.85590341      -3.12719130       1.21760563       0.00000000
