10
Lattice="16.28999089631971 0.0 0.0 0.0 16.28999089631971 0.0 0.0 0.0 34.25627252547053" Properties=species:S:1:pos:R:3:initial_magmoms:R:1 pbc="T T T"
Si      -1.41130044       0.32625402       1.87649519       0.00000000
Si       1.04404239      -2.17572498      -0.01949183       0.00000000
Si      -1.44466236       1.82640941      -0.85298166       0.00000000
Si       2.20995027       0.51888278      -1.57890674       0.00000000
Si       3.12238575      -0.99650817       0.03922345       0.00000000
Si       1.32447474       2.99599883      -0.63504313       0.00000000
Si      -3.21483150       1.17756242       0.53206872       0.00000000
Si       0.14924898       1.55988057       3.15492708       0.00000000
Si       1.86771366       2.51189261       1.73069637       0.00000000
Si      -1.72348200       1.66291319      -3.18031986       0.00000000
