10
Lattice="16.28999089631971 0.0 0.0 0.0 16.28999089631971 0.0 0.0 0.0 34.25627252547053" Properties=species:S:1:pos:R:3:initial_magmoms:R:1 pbc="T T T"
Si      -0.77597415      -1.83496166       1.34136334       0.00000000
Si       1.95019875       1.01704009       1.07688421       0.00000000
Si      -0.39477186      -1.54260503      -1.92983988       0.00000000
Si      -1.64944395       1.96579575      -0.23836696       0.00000000
Si      -2.04661044      -0.36713464       2.61847900       0.00000000
Si       0.69340493       2.35245519       2.60426606       0.00000000
Si      -3.36790863       1.01378372       1.18586375       0.00000000
Si      -1.30720734      -0.02721407      -3.54797007       0.00000000
Si       2.52673280       2.85053823      -0.46332803       0.00000000
Si       0.90175480       0.80076753      -3.68153535       0.00000000
