10
Lattice="16.28999089631971 0.0 0.0 0.0 16.28999089631971 0.0 0.0 0.0 34.25627252547053" Properties=species:S:1:pos:R:3:initial_magmoms:R:1 pbc="T T T"
Si       1.35682668      -1.35692611      -1.35692597       0.00000000
Si      -1.35775521       1.35783890      -1.35699448       0.00000000
Si       1.35772263       1.35774116       1.35754258       0.00000000
Si      -1.35762489      -1.35780577       1.35767961       0.00000000
Si       2.71369289       0.00005318      -2.71450281       0.00000000
Si      -0.00039096      -2.71471390      -2.71357789       0.00000000
Si      -0.00211770       2.71395207      -2.71484537       0.00000000
Si       2.71433160      -2.71455100       0.00020554       0.00000000
Si      -2.71520091      -2.71450213       0.00017128       0.00000000
Si      -2.71593396      -0.00108901      -2.71388619       0.00000000
