10
Lattice="16.28999089631971 0.0 0.0 0.0 16.28999089631971 0.0 0.0 0.0 34.25627252547053" Properties=species:S:1:pos:R:3:initial_magmoms:R:1 pbc="T T T"
Si      -1.35563751      -1.35611318       1.35785089       0.00000000
Si       1.35975888       1.35852084       1.35733704       0.00000000
Si      -1.35645201       1.35961227      -1.36004329       0.00000000
Si       1.36283769      -1.35518953      -1.35850176       0.00000000
Si       0.00211770      -2.71395207       2.71484537       0.00000000
Si      -2.71381626      -2.71504109       0.00095918       0.00000000
Si      -2.71394658       0.00190593       2.71515368       0.00000000
Si       2.71581059      -2.71389890       0.00034256       0.00000000
Si      -0.01858689      -2.71781422      -2.71317366       0.00000000
Si      -2.71357191       2.71769328       0.00041108       0.00000000
