10
Lattice="16.28999089631971 0.0 0.0 0.0 16.28999089631971 0.0 0.0 0.0 34.25627252547053" Properties=species:S:1:pos:R:3:initial_magmoms:R:1 pbc="T T T"
Si      -0.06214635      -0.85035918      -2.20908548       0.00000000
Si       2.29033232      -0.07003723       0.89963873       0.00000000
Si      -1.67817951      -1.36579758       1.19585289       0.00000000
Si      -0.22838580       2.47037524      -0.42734724       0.00000000
Si       0.43372125       2.90096881       1.83164966       0.00000000
Si       1.90993638       2.46004738      -1.75714222       0.00000000
Si       0.70775263       1.13125579      -3.33793306       0.00000000
Si       1.68571268      -0.28490395       3.20265496       0.00000000
Si      -0.03072294       1.27429828       3.47393054       0.00000000
Si      -1.98581616       0.07859599       3.12578385       0.00000000
