10
Lattice="16.28999089631971 0.0 0.0 0.0 16.28999089631971 0.0 0.0 0.0 34.25627252547053" Properties=species:S:1:pos:R:3:initial_magmoms:R:1 pbc="T T T"
Si      -1.27125531       1.34390871      -1.43095382       0.00000000
Si       1.10343573       1.61715717       1.32931540       0.00000000
Si      -1.84678101      -0.87462639       1.26326927       0.00000000
Si       1.44653571      -1.38505725      -1.40200725       0.00000000
Si      -0.48187449       3.40949700       1.20078579       0.00000000
Si      -2.57253309       2.63453283       0.07382231       0.00000000
Si       1.95714576      -1.43135343       2.85282971       0.00000000
Si      -2.68034031      -2.72482830       0.06762192       0.00000000
Si      -2.61998586      -0.02251278      -2.78548184       0.00000000
Si       2.80601623       2.65403196       0.00907792       0.00000000
