10
Lattice="16.28999089631971 0.0 0.0 0.0 16.28999089631971 0.0 0.0 0.0 34.25627252547053" Properties=species:S:1:pos:R:3:initial_magmoms:R:1 pbc="T T T"
Si      -1.34017420      -1.35034326      -1.35881007       0.00000000
Si       1.24595205      -1.37811771       1.43890128       0.00000000
Si       1.37640237       1.36028016      -1.35528167       0.00000000
Si      -1.34304255       1.32471909       1.43496180       0.00000000
Si       2.25034458       0.41976072       2.72659528       0.00000000
Si       0.41353305       2.18043279       2.78609846       0.00000000
Si      -2.68424569       2.73088818       0.01312016       0.00000000
Si      -2.69825509       0.00278559      -2.71803121       0.00000000
Si      -2.70252307      -2.71437012       0.02387664       0.00000000
Si       0.01694974      -2.71248048      -2.71782567       0.00000000
