10
Lattice="16.28999089631971 0.0 0.0 0.0 16.28999089631971 0.0 0.0 0.0 34.25627252547053" Properties=species:S:1:pos:R:3:initial_magmoms:R:1 pbc="T T T"
Si       1.91487321      -1.24566372      -0.68005590       0.00000000
Si      -0.68186682       1.89016128      -1.30242421       0.00000000
Si       0.99549819       1.14315075       1.88399327       0.00000000
Si      -2.19335076      -0.95026086      -0.44635948       0.00000000
Si      -3.33254304       0.66673341       0.75994157       0.00000000
Si       1.82778687      -1.29083589      -2.99352030       0.00000000
Si      -0.08322561       0.27096786       3.75856607       0.00000000
Si       3.77511972       0.02125845      -0.11516965       0.00000000
Si      -2.35618560       0.27725580       2.97313781       0.00000000
Si      -2.40122745      -1.18760616      -2.80949550       0.00000000
