10
Lattice="16.28999089631971 0.0 0.0 0.0 16.28999089631971 0.0 0.0 0.0 34.25627252547053" Properties=species:S:1:pos:R:3:initial_magmoms:R:1 pbc="T T T"
Si      -1.36264221      -1.34667801       1.35291798       0.00000000
Si      -1.35583299       1.35711990      -1.36038585       0.00000000
Si       1.35941679      -1.35848826      -1.36004329       0.00000000
Si       1.37342619       1.36961433       1.37110807       0.00000000
Si      -2.71005327       2.71401174      -0.00363117       0.00000000
Si      -2.71137276      -2.71309950      -0.00161005       0.00000000
Si       2.71749768      -2.71161711      -0.00082215       0.00000000
Si      -2.71248048      -0.00035838      -2.71734608       0.00000000
Si       2.71759723       2.71428867      -0.00126748       0.00000000
Si       0.00239463       2.71492398      -2.71734608       0.00000000
