10
Lattice="16.28999089631971 0.0 0.0 0.0 16.28999089631971 0.0 0.0 0.0 34.25627252547053" Properties=species:S:1:pos:R:3:initial_magmoms:R:1 pbc="T T T"
Si       1.34417104       1.34467434      -1.37237556       0.00000000
Si      -1.37342619      -1.36961433      -1.37110807       0.00000000
Si      -1.45365444       1.31103549       1.38015174       0.00000000
Si       1.34120314      -1.40616909       1.42184164       0.00000000
Si      -1.94668758      -0.65070405       2.61354952       0.00000000
Si      -0.36137736      -2.44304388       2.74207912       0.00000000
Si       2.70215166       2.68804548       0.01733368       0.00000000
Si       2.68424569      -2.73088818      -0.01312016       0.00000000
Si       2.70053895      -0.01182654      -2.73074029       0.00000000
Si      -0.01453068       2.70340695      -2.73152819       0.00000000
