10
Lattice="16.28999089631971 0.0 0.0 0.0 16.28999089631971 0.0 0.0 0.0 34.25627252547053" Properties=species:S:1:pos:R:3:initial_magmoms:R:1 pbc="T T T"
Si       0.89500518      -2.14537671      -0.26171807       0.00000000
Si      -2.23220241      -0.10044414       0.75137750       0.00000000
Si       0.16135245       0.98652240      -2.14057290       0.00000000
Si       1.47088016       1.00266579       1.60226953       0.00000000
Si      -1.80581166      -0.39949596       3.02613229       0.00000000
Si      -0.21038535       3.24195435      -1.48336594       0.00000000
Si       0.02647125       1.53832986       3.36910629       0.00000000
Si       3.24774449      -1.85318298      -0.52357316       0.00000000
Si      -0.11376936      -3.08876319      -2.26139484       0.00000000
Si      -1.61253081       0.41721948      -3.53405033       0.00000000
