10
Lattice="16.28999089631971 0.0 0.0 0.0 16.28999089631971 0.0 0.0 0.0 34.25627252547053" Properties=species:S:1:pos:R:3:initial_magmoms:R:1 pbc="T T T"
Si      -1.90226475       0.71531019      -1.16344643       0.00000000
Si      -0.79472394      -1.86597063       1.25634950       0.00000000
Si       0.67825437       1.69707591       1.54814459       0.00000000
Si       1.91800808      -0.55529352      -1.33065139       0.00000000
Si       2.34664685       0.41642127       2.68678947       0.00000000
Si      -3.53201409       0.76589064       0.56286513       0.00000000
Si       1.34677805       3.47385879       0.15925750       0.00000000
Si      -1.28282121       2.66973552      -2.38947911       0.00000000
Si      -1.28194155      -3.61484874      -0.32022781       0.00000000
Si       1.00756323       3.05737236      -2.13307077       0.00000000
