10
Lattice="16.28999089631971 0.0 0.0 0.0 16.28999089631971 0.0 0.0 0.0 34.25627252547053" Properties=species:S:1:pos:R:3:initial_magmoms:R:1 pbc="T T T"
Si      -1.80213012       1.13326272      -1.10240172       0.00000000
Si       2.12586129       0.46652931      -1.03039500       0.00000000
Si      -0.58987719      -2.35185246      -0.00472737       0.00000000
Si      -0.30012696      -0.86087763       2.25823405       0.00000000
Si      -2.08039590       0.97740000       2.27729939       0.00000000
Si       1.63864368      -1.28234880      -2.60697231       0.00000000
Si      -2.08973007      -0.63767205      -2.59080334       0.00000000
Si       1.31077485      -3.10515093      -1.09020648       0.00000000
Si      -0.61142886       3.09839058      -1.72387937       0.00000000
Si       3.67832014      -0.30406914       0.54981348       0.00000000
