10
Lattice="16.28999089631971 0.0 0.0 0.0 16.28999089631971 0.0 0.0 0.0 34.25627252547053" Properties=species:S:1:pos:R:3:initial_magmoms:R:1 pbc="T T T"
Si       1.35236322      -1.35540945      -1.35702874       0.00000000
Si       1.36842516       1.33535646       1.37025167       0.00000000
Si      -1.36161594       1.35806472      -1.35648064       0.00000000
Si      -1.37899737      -1.36432008       1.35713151       0.00000000
Si       0.01348812       2.60498277       2.78935281       0.00000000
Si       2.71034055       0.00131949      -2.71395471       0.00000000
Si       2.70980892       2.71511384       0.00373394       0.00000000
Si       2.71106494      -2.71414206       0.00212389       0.00000000
Si      -0.00413766      -2.71350675      -2.71395471       0.00000000
Si      -0.00399105       2.71587049      -2.71416025       0.00000000
