10
Lattice="16.28999089631971 0.0 0.0 0.0 16.28999089631971 0.0 0.0 0.0 34.25627252547053" Properties=species:S:1:pos:R:3:initial_magmoms:R:1 pbc="T T T"
Si       1.15624791      -1.67055579      -1.15628687       0.00000000
Si      -2.30254263      -0.48368268      -0.20831251       0.00000000
Si       0.50837832       1.98214181      -1.18215037       0.00000000
Si       0.65858841       0.36864011       2.25649619       0.00000000
Si       0.53680437      -3.62498112       0.06974581       0.00000000
Si      -3.27484386       1.51267052       0.65508307       0.00000000
Si       2.86755055       1.19662172       2.12293091       0.00000000
Si       3.44663235      -1.28291895      -0.89987853       0.00000000
Si       0.16842231       1.73787326      -3.44090747       0.00000000
Si       0.77367726      -1.55602080      -3.49708779       0.00000000
