10
Lattice="16.28999089631971 0.0 0.0 0.0 16.28999089631971 0.0 0.0 0.0 34.25627252547053" Properties=species:S:1:pos:R:3:initial_magmoms:R:1 pbc="T T T"
Si      -2.07834336      -1.17921681      -0.05871528       0.00000000
Si      -0.91243548       1.51539095      -1.61813019       0.00000000
Si       1.54629960      -1.49646456      -1.09328955       0.00000000
Si       0.39477186       1.54260503       1.92983988       0.00000000
Si      -1.20723561      -2.10611781       1.98143259       0.00000000
Si       1.29652666       2.34337256      -1.75169547       0.00000000
Si      -3.12238575       0.99650817      -0.03922345       0.00000000
Si      -0.38120229      -0.29235663       3.27120321       0.00000000
Si       2.21482328       0.28031832      -2.48217664       0.00000000
Si      -1.25467209       3.50840078       1.69147291       0.00000000
