10
Lattice="16.28999089631971 0.0 0.0 0.0 16.28999089631971 0.0 0.0 0.0 34.25627252547053" Properties=species:S:1:pos:R:3:initial_magmoms:R:1 pbc="T T T"
Si      -0.43904808      -2.33916255       0.18693658       0.00000000
Si      -0.28287585       1.70385255       1.65725088       0.00000000
Si      -1.63505336       1.22886873      -1.33794798       0.00000000
Si       2.00736783       0.27774450      -1.58860127       0.00000000
Si      -2.63561516       1.41165882       1.91910597       0.00000000
Si       0.70656246      -2.83507902       2.13995628       0.00000000
Si       0.45260136       3.59583831       0.34835223       0.00000000
Si      -3.64438970       0.46827234      -0.08057080       0.00000000
Si       2.81953836      -1.59221718       1.96079588       0.00000000
Si       1.50555438       3.12104997      -1.67184406       0.00000000
