10
Lattice="16.28999089631971 0.0 0.0 0.0 16.28999089631971 0.0 0.0 0.0 34.25627252547053" Properties=species:S:1:pos:R:3:initial_magmoms:R:1 pbc="T T T"
Si       2.07834336       1.17921681       0.05871528       0.00000000
Si       0.87110775      -0.92690100       2.04014788       0.00000000
Si      -1.04404239       2.17572498       0.01949183       0.00000000
Si      -0.58562550      -1.24843302      -2.01985373       0.00000000
Si       1.16590788       2.69460776      -1.55941491       0.00000000
Si       3.62464296      -0.31724775      -1.03457426       0.00000000
Si      -2.38128849      -0.16764039      -2.95237850       0.00000000
Si       1.69714107       0.88686018       3.32991850       0.00000000
Si      -0.93550212      -1.74260646       3.31006355       0.00000000
Si      -1.77632676      -3.21356088      -1.39837608       0.00000000
