10
Lattice="16.28999089631971 0.0 0.0 0.0 16.28999089631971 0.0 0.0 0.0 34.25627252547053" Properties=species:S:1:pos:R:3:initial_magmoms:R:1 pbc="T T T"
Si       0.82702701       2.13631947      -0.55635643       0.00000000
Si      -2.31032273      -0.25681185      -0.39754426       0.00000000
Si       0.83574216       0.22027338       2.19658193       0.00000000
Si       0.98117928      -1.58892660      -1.47976903       0.00000000
Si      -2.17772865      -0.55908909      -2.72539631       0.00000000
Si       2.68586262      -0.45506115      -2.57021531       0.00000000
Si       3.16757421       2.00982762       0.10523533       0.00000000
Si      -2.99985889      -2.11699953       0.89395219       0.00000000
Si       0.30476961       2.61845460      -2.79723175       0.00000000
Si      -0.83647521      -0.37054863       3.74051300       0.00000000
