10
Lattice="16.28999089631971 0.0 0.0 0.0 16.28999089631971 0.0 0.0 0.0 34.25627252547053" Properties=species:S:1:pos:R:3:initial_magmoms:R:1 pbc="T T T"
Si       1.35712102       1.35643572       1.35757684       0.00000000
Si       1.35700211      -1.35692442      -1.35767961       0.00000000
Si      -1.35731818       1.35697329      -1.35764535       0.00000000
Si      -1.35723673      -1.35775847       1.35740556       0.00000000
Si       2.71401612       0.00079821      -2.71354363       0.00000000
Si       2.71572657       0.00019548       2.71306404       0.00000000
Si       2.71432563       2.71541268      -0.00020554       0.00000000
Si      -0.00126648      -2.71544645      -2.71463983       0.00000000
Si       2.71536819      -2.71507958       0.00041108       0.00000000
Si      -2.71495936      -2.71549962      -0.00013703       0.00000000
