10
Lattice="16.28999089631971 0.0 0.0 0.0 16.28999089631971 0.0 0.0 0.0 34.25627252547053" Properties=species:S:1:pos:R:3:initial_magmoms:R:1 pbc="T T T"
Si      -1.35798063      -1.34337114      -1.38970924       0.00000000
Si       1.35646015       1.37422440      -1.38964073       0.00000000
Si      -1.37488138       1.25136522       1.54413660       0.00000000
Si       1.38946370      -1.36542780       1.54852141       0.00000000
Si      -2.70215166      -2.68804548      -0.01733368       0.00000000
Si       2.71590952      -2.68185528      -0.01257206       0.00000000
Si      -2.70062040       2.70612738      -0.02158146       0.00000000
Si       2.71819012       2.71498914      -0.01685410       0.00000000
Si      -0.00161271      -2.69987202      -2.74807397       0.00000000
Si       2.71467148       0.01412343      -2.74937571       0.00000000
