10
Lattice="16.28999089631971 0.0 0.0 0.0 16.28999089631971 0.0 0.0 0.0 34.25627252547053" Properties=species:S:1:pos:R:3:initial_magmoms:R:1 pbc="T T T"
Si      -1.75657561      -0.85571370      -1.35113666       0.00000000
Si       0.99383661       1.87307307      -1.20712321       0.00000000
Si      -0.90333914      -0.14131575       2.31939074       0.00000000
Si       1.83681153      -1.76067207      -0.05950318       0.00000000
Si       2.23726860       1.75086549       1.98549467       0.00000000
Si      -0.67365503       2.27320434       2.55219650       0.00000000
Si      -0.41353305      -2.18043279      -2.78609846       0.00000000
Si       2.73908205      -1.09243998       2.06873745       0.00000000
Si       2.32028244       0.55664559      -2.76821667       0.00000000
Si       0.83241900      -3.55855050      -1.34719718       0.00000000
