10
Lattice="16.28999089631971 0.0 0.0 0.0 16.28999089631971 0.0 0.0 0.0 34.25627252547053" Properties=species:S:1:pos:R:3:initial_magmoms:R:1 pbc="T T T"
Si      -1.81709316       1.38645819       0.44591415       0.00000000
Si       0.79884042      -0.31641696       2.16856029       0.00000000
Si      -1.16291934      -1.86952185      -0.78429780       0.00000000
Si       1.28839076       1.33343424      -1.48429086       0.00000000
Si      -1.10059380      -3.31387470       1.16851637       0.00000000
Si      -1.72969731       3.10479255      -1.01360941       0.00000000
Si       2.98013984      -1.05129144       2.03389881       0.00000000
Si       2.56743269      -0.26536410      -2.75146535       0.00000000
Si      -0.28528840       2.56912848      -2.78044617       0.00000000
Si      -3.44868327      -1.22701167      -1.05180518       0.00000000
