10
Lattice="16.28999089631971 0.0 0.0 0.0 16.28999089631971 0.0 0.0 0.0 34.25627252547053" Properties=species:S:1:pos:R:3:initial_magmoms:R:1 pbc="T T T"
Si      -1.55245885       0.77059845      -1.58020848       0.00000000
Si       2.32748425       0.54193572      -0.69680723       0.00000000
Si      -0.48335102      -2.48560965      -0.30577166       0.00000000
Si      -0.97064521       1.71554877       1.62035685       0.00000000
Si       1.58891194       3.05299035      -0.14976851       0.00000000
Si       2.82605599      -1.80175545       1.35103389       0.00000000
Si      -2.02196923       0.18355572       3.00019141       0.00000000
Si       2.94081904      -1.74886182      -1.29348332       0.00000000
Si       0.99663849      -2.85555555      -2.18308496       0.00000000
Si      -3.67832014       0.30406914      -0.54981348       0.00000000
