10
Lattice="16.28999089631971 0.0 0.0 0.0 16.28999089631971 0.0 0.0 0.0 34.25627252547053" Properties=species:S:1:pos:R:3:initial_magmoms:R:1 pbc="T T T"
Si      -1.35797733      -1.35672894       1.35692597       0.00000000
Si       1.35748489      -1.35742941      -1.35723428       0.00000000
Si      -1.35750492       1.35762489      -1.35713151       0.00000000
Si       1.35730082       1.35845568       1.35675469       0.00000000
Si      -2.71034055      -0.00131949       2.71395471       0.00000000
Si      -2.71472256      -0.00016290      -2.71378343       0.00000000
Si      -2.71433160       2.71455100      -0.00020554       0.00000000
Si      -2.71447821      -2.71482624       0.00000000       0.00000000
Si      -0.00063871       2.71460418      -2.71470835       0.00000000
Si       2.71492082      -0.00030951      -2.71457132       0.00000000
