10
Lattice="16.28999089631971 0.0 0.0 0.0 16.28999089631971 0.0 0.0 0.0 34.25627252547053" Properties=species:S:1:pos:R:3:initial_magmoms:R:1 pbc="T T T"
Si       1.35869514       1.35651536      -1.35641212       0.00000000
Si      -1.35730082      -1.35845568      -1.35675469       0.00000000
Si       1.35786435      -1.35632169       1.35939242       0.00000000
Si      -1.35783244       1.35533867       1.36093396       0.00000000
Si       0.02150280       2.71858013       2.70429443       0.00000000
Si      -2.69921620      -0.02441871       2.72745169       0.00000000
Si      -2.71390978       2.71383648       0.00058236       0.00000000
Si      -2.71480573      -0.00083079      -2.71388619       0.00000000
Si       0.00032906       2.71467053      -2.71450281       0.00000000
Si       2.71563585      -0.00079821      -2.71422876       0.00000000
