10
Lattice="16.28999089631971 0.0 0.0 0.0 16.28999089631971 0.0 0.0 0.0 34.36671206372826" Properties=species:S:1:pos:R:3:initial_magmoms:R:1 pbc="T T T"
Si       1.35552348      -1.35865768      -1.36130059       0.00000000
Si      -1.34951573      -1.36633027       1.36075072       0.00000000
Si      -1.36019382       1.35775521      -1.36133496       0.00000000
Si       1.36534635       1.35115776       1.38442940       0.00000000
Si      -0.20382048       2.60389134       2.69658557       0.00000000
Si       2.71422351       2.71552671      -0.00233694       0.00000000
Si      -2.71588153       2.71619460      -0.00776688       0.00000000
Si       2.71422351      -2.71842586      -0.00343667       0.00000000
Si       2.71459818      -0.00063531      -2.71816788       0.00000000
Si      -0.00146610       2.71458189      -2.71888958       0.00000000
