10
Lattice="16.28999089631971 0.0 0.0 0.0 16.28999089631971 0.0 0.0 0.0 34.36671206372826" Properties=species:S:1:pos:R:3:initial_magmoms:R:1 pbc="T T T"
Si       0.46840592       2.11133617       0.77112072       0.00000000
Si       0.97442219      -1.71411525       1.18513673       0.00000000
Si      -2.23789155      -0.38892375       0.59540362       0.00000000
Si       0.37720635      -0.25418916      -2.32422204       0.00000000
Si      -0.51636368      -3.45287727       0.54450649       0.00000000
Si      -3.09720534       1.72969079      -0.08392356       0.00000000
Si      -2.56690068      -2.54096307      -0.35139983       0.00000000
Si      -1.77277947      -0.55688994      -3.15314759       0.00000000
Si       2.48147525       2.71185236      -0.26675457       0.00000000
Si       1.74401066      -2.19756987      -2.41673728       0.00000000
