10
Lattice="16.28999089631971 0.0 0.0 0.0 16.28999089631971 0.0 0.0 0.0 34.36671206372826" Properties=species:S:1:pos:R:3:initial_magmoms:R:1 pbc="T T T"
Si       0.52118112       2.23683759      -0.41597492       0.00000000
Si      -1.52127441      -0.38939616       1.80067723       0.00000000
Si      -1.30313502      -1.19272122      -1.65596095       0.00000000
Si       2.14158814      -1.02506454       0.65118877       0.00000000
Si       1.37794390       2.58235011       1.82038655       0.00000000
Si       2.50322614       1.75447440      -1.59994317       0.00000000
Si      -2.88955296      -1.94916366       0.64418964       0.00000000
Si      -0.03883554      -1.58798178       3.25879921       0.00000000
Si       1.26842785      -2.96232021       1.72674064       0.00000000
Si       3.64375420      -0.28877283      -1.09427109       0.00000000
