10
Lattice="16.28999089631971 0.0 0.0 0.0 16.28999089631971 0.0 0.0 0.0 34.36671206372826" Properties=species:S:1:pos:R:3:initial_magmoms:R:1 pbc="T T T"
Si      -0.99227277      -0.32574624      -2.19712153       0.00000000
Si      -1.87822071       0.76347972       1.37318117       0.00000000
Si       0.79032564      -1.90809364       1.37626387       0.00000000
Si       1.85262912       1.81956042       0.04253570       0.00000000
Si      -1.61575623      -2.61308609      -1.58460328       0.00000000
Si      -0.56078325       2.12972202       2.73503507       0.00000000
Si       2.16508761      -0.59587517       2.73555057       0.00000000
Si       0.79936659       3.48330699       1.35664390       0.00000000
Si       3.14188488      -1.74649162      -1.36747427       0.00000000
Si       3.51906354       0.75100158       1.36458949       0.00000000
