10
Lattice="16.28999089631971 0.0 0.0 0.0 16.28999089631971 0.0 0.0 0.0 34.36671206372826" Properties=species:S:1:pos:R:3:initial_magmoms:R:1 pbc="T T T"
Si      -1.35697329       1.35717854       1.35776082       0.00000000
Si       1.35747828      -1.35716537       1.35762335       0.00000000
Si      -1.35799956      -1.35685263      -1.35752025       0.00000000
Si       1.35733167       1.35657581      -1.35934169       0.00000000
Si      -0.00094482      -2.71391141       2.71462810       0.00000000
Si       2.71419093       0.00073305       2.71473120       0.00000000
Si      -0.00047241       2.71423328       2.71524670       0.00000000
Si       2.71554300      -2.71472591       0.00024057       0.00000000
Si      -2.71542897      -2.71497026      -0.00051550       0.00000000
Si       2.72039742      -0.00492935      -2.71002296       0.00000000
