10
Lattice="16.28999089631971 0.0 0.0 0.0 16.28999089631971 0.0 0.0 0.0 34.36671206372826" Properties=species:S:1:pos:R:3:initial_magmoms:R:1 pbc="T T T"
Si      -1.35640314      -1.35696113      -1.35693602       0.00000000
Si       1.35907470       1.35802237      -1.35686728       0.00000000
Si      -1.35552348       1.35865768       1.36130059       0.00000000
Si       1.35870003      -1.35976818       1.35786392       0.00000000
Si       2.70350469       0.00439178       2.70514289       0.00000000
Si      -2.70503921      -0.00767259       2.72205132       0.00000000
Si       2.71510317      -2.71306759       0.00000000       0.00000000
Si      -2.71399056       0.00030788      -2.71490304       0.00000000
Si      -2.71463728      -2.71443595       0.00027493       0.00000000
Si       0.00061902      -2.71412644      -2.71514360       0.00000000
