10
Lattice="16.28999089631971 0.0 0.0 0.0 16.28999089631971 0.0 0.0 0.0 34.36671206372826" Properties=species:S:1:pos:R:3:initial_magmoms:R:1 pbc="T T T"
Si      -1.31743746      -1.36624230      -1.36185390       0.00000000
Si      -1.35286821       1.34993601       1.35477091       0.00000000
Si       1.36280511      -1.36409202       1.35119677       0.00000000
Si       1.36014984       1.35358497      -1.37839117       0.00000000
Si       0.56078325      -2.12972202      -2.73503507       0.00000000
Si       2.41341237      -0.31016160      -2.69249936       0.00000000
Si      -2.71914309      -0.01485648      -2.58808980       0.00000000
Si      -2.70528030       2.71135647      -0.00494881       0.00000000
Si      -2.70946683      -0.00490329       2.71101960       0.00000000
Si       0.00410508       2.70956457       2.71170693       0.00000000
