10
Lattice="16.28999089631971 0.0 0.0 0.0 16.28999089631971 0.0 0.0 0.0 34.36671206372826" Properties=species:S:1:pos:R:3:initial_magmoms:R:1 pbc="T T T"
Si       1.35215145       1.34918667      -1.36749691       0.00000000
Si       1.35241209      -1.36142046       1.35971972       0.00000000
Si      -1.36257705       1.35643572       1.35855125       0.00000000
Si      -1.38776139      -1.36793646      -1.34285597       0.00000000
Si      -0.01386279      -2.72621295      -2.58314099       0.00000000
Si      -0.10236636       2.45676006      -2.90631886       0.00000000
Si       2.70528030      -2.71135647       0.00494881       0.00000000
Si       2.70796815       2.71588509       0.00185580       0.00000000
Si       2.70938538      -0.00179190       2.71665574       0.00000000
Si      -0.00421911       2.71305063       2.71583094       0.00000000
