10
Lattice="16.28999089631971 0.0 0.0 0.0 16.28999089631971 0.0 0.0 0.0 34.36671206372826" Properties=species:S:1:pos:R:3:initial_magmoms:R:1 pbc="T T T"
Si      -1.35661491       1.35809730       1.35587065       0.00000000
Si       1.35648459       1.35653346      -1.35913549       0.00000000
Si       1.35866745      -1.35775521       1.35611122       0.00000000
Si      -1.35697329      -1.35962856      -1.35693602       0.00000000
Si      -0.00410508      -2.70956457      -2.71170693       0.00000000
Si      -2.70938538       0.00179190      -2.71665574       0.00000000
Si      -0.00070047       2.71370223       2.71304723       0.00000000
Si      -2.71357191      -2.71446786      -0.00068733       0.00000000
Si      -2.71469592      -0.00026064       2.71352837       0.00000000
Si      -2.71360449       2.71484253      -0.00082480       0.00000000
