10
Lattice="16.28999089631971 0.0 0.0 0.0 16.28999089631971 0.0 0.0 0.0 34.36671206372826" Properties=species:S:1:pos:R:3:initial_magmoms:R:1 pbc="T T T"
Si       0.59803848       2.05871391       0.90834707       0.00000000
Si      -0.76230684       1.55422890      -1.76132934       0.00000000
Si      -2.14606089      -0.56084841       1.19774932       0.00000000
Si       1.52832780      -1.43022942       1.57025032       0.00000000
Si       2.54288529      -1.34946360      -1.81703782       0.00000000
Si      -1.41470505       3.29903451       0.03457293       0.00000000
Si      -1.82765655      -2.92385952       1.25448879       0.00000000
Si       0.40435038      -3.60720873       0.58471557       0.00000000
Si       1.02133413       1.60951716       3.25123025       0.00000000
Si       0.76778028      -0.71153091       3.75209099       0.00000000
