10
Lattice="16.28999089631971 0.0 0.0 0.0 16.28999089631971 0.0 0.0 0.0 34.36671206372826" Properties=species:S:1:pos:R:3:initial_magmoms:R:1 pbc="T T T"
Si       2.13842088       0.48047355      -0.92587411       0.00000000
Si      -1.74687444       1.08784620      -1.52866657       0.00000000
Si      -0.36183348      -2.51786385      -0.32493744       0.00000000
Si       0.07765443       0.94411953       2.45161951       0.00000000
Si       2.20107222       0.02660157      -3.24215743       0.00000000
Si       2.94936966       2.61493596       0.14097233       0.00000000
Si       1.71880677      -3.38770098      -1.12221124       0.00000000
Si      -3.55152951      -0.33308163      -1.82459850       0.00000000
Si      -0.65881647      -0.77336775       3.94383814       0.00000000
Si       3.98891601      -0.81907749      -0.28634360       0.00000000
