10
Lattice="16.28999089631971 0.0 0.0 0.0 16.28999089631971 0.0 0.0 0.0 34.36671206372826" Properties=species:S:1:pos:R:3:initial_magmoms:R:1 pbc="T T T"
Si       1.39258323      -1.17994986      -1.52351156       0.00000000
Si       1.92168243       0.87565266       1.13661090       0.00000000
Si      -1.47720978      -1.33706691       1.41257576       0.00000000
Si      -1.31422833       1.54287477      -1.49137867       0.00000000
Si       2.68131771      -2.66535351      -0.19757434       0.00000000
Si      -2.77073352      -2.60656290      -0.16575074       0.00000000
Si       0.05129721      -2.52024219      -2.89354131       0.00000000
Si      -0.72643626       2.45449575       2.87340240       0.00000000
Si       1.88444349       0.08110791       3.37824968       0.00000000
Si      -2.12960799       0.40773870       3.20847803       0.00000000
