10
Lattice="16.28999089631971 0.0 0.0 0.0 16.28999089631971 0.0 0.0 0.0 34.36671206372826" Properties=species:S:1:pos:R:3:initial_magmoms:R:1 pbc="T T T"
Si       1.97296335       0.23325651       1.32432199       0.00000000
Si      -0.59030073      -2.29731354       0.38556036       0.00000000
Si      -1.95393663       1.40590845       0.10602137       0.00000000
Si       0.76535307       0.10212201      -2.67517510       0.00000000
Si       2.77809660      -1.13819859      -1.80140095       0.00000000
Si       3.20139225      -1.58739534       0.54148222       0.00000000
Si      -2.94593247      -2.10854502       0.28452217       0.00000000
Si      -1.76171463       2.36853342       2.29064574       0.00000000
Si      -1.61513721       3.37672152      -1.20073922       0.00000000
Si      -3.87699882      -0.12572622      -0.64313901       0.00000000
