10
Lattice="16.28999089631971 0.0 0.0 0.0 16.28999089631971 0.0 0.0 0.0 34.36671206372826" Properties=species:S:1:pos:R:3:initial_magmoms:R:1 pbc="T T T"
Si      -2.35563174       0.18876852      -0.10103819       0.00000000
Si       0.59030073       2.29731354      -0.38556036       0.00000000
Si       0.15376131      -0.95579946       2.20222014       0.00000000
Si       0.62429796      -1.46044737      -1.89755907       0.00000000
Si      -1.33926606      -0.60025392      -3.22882314       0.00000000
Si       1.66395834      -2.67199983       1.63881195       0.00000000
Si      -2.18448900      -1.59272217       2.50567838       0.00000000
Si       2.56326408       2.53057005       0.93876163       0.00000000
Si      -2.97776313      -1.65205035      -1.54949281       0.00000000
Si       3.79169298       0.70991820       0.15592186       0.00000000
