10
Lattice="16.28999089631971 0.0 0.0 0.0 16.28999089631971 0.0 0.0 0.0 34.36671206372826" Properties=species:S:1:pos:R:3:initial_magmoms:R:1 pbc="T T T"
Si       1.82560401       0.83430864      -1.20524127       0.00000000
Si       1.16639658      -0.06328665       2.08698849       0.00000000
Si      -1.75143564       1.63870884      -0.12739747       0.00000000
Si      -0.94511322      -2.21215268      -0.40772690       0.00000000
Si       2.56714110      -1.35658233      -1.63193860       0.00000000
Si      -3.12976838       0.49829481       1.37099201       0.00000000
Si      -2.93176343      -1.72947346       0.70826396       0.00000000
Si      -2.05211646       1.36866951      -2.48437100       0.00000000
Si       0.61714665      -1.72497416      -3.05317477       0.00000000
Si       2.48681511       2.71239903       0.06014178       0.00000000
