10
Lattice="16.28999089631971 0.0 0.0 0.0 16.28999089631971 0.0 0.0 0.0 34.36671206372826" Properties=species:S:1:pos:R:3:initial_magmoms:R:1 pbc="T T T"
Si      -1.42688997      -1.80245592       0.34095234       0.00000000
Si      -1.18736181       1.89038934      -0.80720578       0.00000000
Si       1.40541975      -0.46164231      -1.86470447       0.00000000
Si       1.22852664       0.24602787       2.11582218       0.00000000
Si      -2.12959170      -1.00022229       2.42395429       0.00000000
Si       3.11135742      -1.58102595      -0.62114430       0.00000000
Si       3.37843197      -0.43974855       1.41810880       0.00000000
Si       2.17924362       1.69590303      -2.46516000       0.00000000
Si      -0.04779486      -3.69610326       0.63241659       0.00000000
Si      -2.91988476       1.22072373       2.07434153       0.00000000
