10
Lattice="16.28999089631971 0.0 0.0 0.0 16.28999089631971 0.0 0.0 0.0 34.36671206372826" Properties=species:S:1:pos:R:3:initial_magmoms:R:1 pbc="T T T"
Si      -0.54221265      -2.18494512       0.65396453       0.00000000
Si       1.12717026       1.72908576       1.18355586       0.00000000
Si      -2.25049608       0.78353271       0.17911940       0.00000000
Si       1.56773331      -0.30846744      -1.78480182       0.00000000
Si       0.60975099       1.40113548      -3.07833122       0.00000000
Si      -0.74165112       2.68504812       2.43364571       0.00000000
Si       1.28378232      -3.50673201      -0.11413191       0.00000000
Si      -1.48090761       0.30007809      -3.42275460       0.00000000
Si       1.53435510      -2.61643464      -2.38972503       0.00000000
Si      -3.74128195      -0.95522931      -0.46151083       0.00000000
