10
Lattice="16.28999089631971 0.0 0.0 0.0 16.28999089631971 0.0 0.0 0.0 34.36671206372826" Properties=species:S:1:pos:R:3:initial_magmoms:R:1 pbc="T T T"
Si      -0.35249931       0.43230402       2.30679746       0.00000000
Si       1.50618969      -1.41141447      -1.38061470       0.00000000
Si       1.11672837       2.22003378      -0.04512352       0.00000000
Si      -2.37314349       0.34971372      -0.75376552       0.00000000
Si      -1.08537012       1.75513347      -2.23672434       0.00000000
Si      -2.18461932       2.06998659       1.91298973       0.00000000
Si       0.38692008      -1.26275193      -3.51152387       0.00000000
Si       0.77825475       1.05788889      -3.64431692       0.00000000
Si      -0.51701202       3.74624129      -0.93374409       0.00000000
Si      -1.22306949      -1.48595751       3.49633175       0.00000000
