10
Lattice="16.28999089631971 0.0 0.0 0.0 16.28999089631971 0.0 0.0 0.0 34.36671206372826" Properties=species:S:1:pos:R:3:initial_magmoms:R:1 pbc="T T T"
Si      -1.46857608       1.18927751      -1.34865364       0.00000000
Si       1.27281915      -1.52968054      -1.30689806       0.00000000
Si      -1.17988470      -1.69779334       1.29160486       0.00000000
Si       0.88993899       1.84098829       1.42546328       0.00000000
Si      -0.44725824       0.24212479       2.68232338       0.00000000
Si      -2.68335396       2.52696019       0.14489014       0.00000000
Si      -0.09756081       2.54443936      -2.69603570       0.00000000
Si       2.69910639       2.56763632       0.09048760       0.00000000
Si       2.61661383      -0.17540471      -2.69328636       0.00000000
Si      -0.82082052       3.44371252       1.45883338       0.00000000
