10
Lattice="16.28999089631971 0.0 0.0 0.0 16.28999089631971 0.0 0.0 0.0 34.36671206372826" Properties=species:S:1:pos:R:3:initial_magmoms:R:1 pbc="T T T"
Si       0.71604324       1.91431935       1.10282841       0.00000000
Si       1.27470879      -1.38859870      -1.40838301       0.00000000
Si      -1.80916740      -0.72664803       1.33497568       0.00000000
Si      -1.43088102       1.33121880      -1.42639118       0.00000000
Si       2.47906107      -2.73950537       0.20506629       0.00000000
Si      -2.69910639      -2.56763632      -0.09048760       0.00000000
Si       2.64065787       2.75064795      -0.04357702       0.00000000
Si      -2.72517039       2.67416640       0.02464095       0.00000000
Si       2.63502153      -0.02153538      -2.78538920       0.00000000
Si      -0.08384463       2.68661196      -2.78521737       0.00000000
