10
Lattice="16.28999089631971 0.0 0.0 0.0 16.28999089631971 0.0 0.0 0.0 34.36671206372826" Properties=species:S:1:pos:R:3:initial_magmoms:R:1 pbc="T T T"
Si      -0.06240699      -1.88827001       1.40735201       0.00000000
Si       2.20042062       0.27968301      -0.90456673       0.00000000
Si      -0.60745410       1.59120720       1.70795781       0.00000000
Si      -1.28656791      -0.40571874      -2.00698274       0.00000000
Si       1.16737398      -1.18012742       3.26576737       0.00000000
Si      -3.45971907      -0.74865582      -1.10038837       0.00000000
Si       1.11568581      -3.59861480       0.22809200       0.00000000
Si      -2.22350355      -2.39790755       2.14843621       0.00000000
Si       0.07022619       3.77180289       1.08492334       0.00000000
Si      -0.88352073      -2.62888883      -2.80308807       0.00000000
