10
Lattice="16.28999089631971 0.0 0.0 0.0 16.28999089631971 0.0 0.0 0.0 34.36671206372826" Properties=species:S:1:pos:R:3:initial_magmoms:R:1 pbc="T T T"
Si       1.68537969      -0.26026533       1.61224646       0.00000000
Si      -2.20042062      -0.27968301       0.90456673       0.00000000
Si       0.71931753      -1.94812110      -1.23438425       0.00000000
Si       0.48202110       1.88226063      -1.47337050       0.00000000
Si       2.09259711      -0.65691054      -2.85604720       0.00000000
Si      -3.48698853      -0.68540175      -1.10241601       0.00000000
Si       2.69340489       2.44506384      -0.81009259       0.00000000
Si       3.54281436      -1.19975850       0.43999726       0.00000000
Si      -0.95503383      -3.56536691      -1.20524127       0.00000000
Si      -2.26282761      -2.16795302       2.31191875       0.00000000
