10
Lattice="16.28999089631971 0.0 0.0 0.0 16.28999089631971 0.0 0.0 0.0 34.36671206372826" Properties=species:S:1:pos:R:3:initial_magmoms:R:1 pbc="T T T"
Si      -1.35475785       1.36013355       1.35552698       0.00000000
Si      -1.35645201      -1.35708732      -1.35810449       0.00000000
Si       1.35796698       1.35853713      -1.35817322       0.00000000
Si       1.35754344      -1.36104579       1.35831069       0.00000000
Si      -0.01347183       2.70042588       2.72555672       0.00000000
Si       2.71407690      -2.71490769      -0.00113410       0.00000000
Si       2.71564074       2.71352304      -0.00219947       0.00000000
Si      -2.71511946       0.00066789      -2.71421570       0.00000000
Si       0.00188964      -2.71467963      -2.71469684       0.00000000
Si      -2.71422351      -2.71533123      -0.00013747       0.00000000
