10
Lattice="16.28999089631971 0.0 0.0 0.0 16.28999089631971 0.0 0.0 0.0 34.36671206372826" Properties=species:S:1:pos:R:3:initial_magmoms:R:1 pbc="T T T"
Si       1.45477845      -0.37934523       1.76851199       0.00000000
Si      -0.71604324      -1.91431935      -1.10282841       0.00000000
Si       1.92461463       0.83632860      -1.14640542       0.00000000
Si      -1.73550402       1.77295473       0.35957911       0.00000000
Si      -2.14692426      -0.58310055      -2.52921959       0.00000000
Si       0.57469491       2.13974037      -2.54482208       0.00000000
Si      -2.52521064      -2.64096738       0.23214727       0.00000000
Si      -0.88216866       3.34836063      -1.19486251       0.00000000
Si      -3.44121363       0.75984705      -1.07818746       0.00000000
Si       3.68209386       1.40804244       0.58368456       0.00000000
