10
Lattice="16.28999089631971 0.0 0.0 0.0 16.28999089631971 0.0 0.0 0.0 34.36671206372826" Properties=species:S:1:pos:R:3:initial_magmoms:R:1 pbc="T T T"
Si       0.35697906       0.67974912       2.24191371       0.00000000
Si       1.20998862      -2.05504866      -0.06777119       0.00000000
Si      -2.37776985      -0.55449531      -0.26201196       0.00000000
Si       0.49052448       2.29389264      -1.53722389       0.00000000
Si      -3.13831737       0.16420320       1.91982871       0.00000000
Si      -1.40222691      -0.44518941       3.39508938       0.00000000
Si      -0.67258152       2.82299184       2.33707519       0.00000000
Si       3.42137241      -1.49224545       0.59550672       0.00000000
Si       1.82707011      -2.62602945      -2.24036721       0.00000000
Si      -1.36321236      -0.47372949      -3.64930009       0.00000000
