10
Lattice="16.28999089631971 0.0 0.0 0.0 16.28999089631971 0.0 0.0 0.0 34.36671206372826" Properties=species:S:1:pos:R:3:initial_magmoms:R:1 pbc="T T T"
Si       0.97353927      -0.93832029       1.99103658       0.00000000
Si      -1.97733721       1.02332151       0.93206012       0.00000000
Si       0.83425977       1.72693548      -1.48285572       0.00000000
Si      -0.37836783      -1.97997896      -1.34916914       0.00000000
Si      -1.32558083       2.60286507      -1.98852780       0.00000000
Si      -0.83986353       2.76535782       2.06561238       0.00000000
Si      -1.03953006      -1.53883648       3.02891186       0.00000000
Si       2.55190995      -2.56105583       1.23988293       0.00000000
Si       1.44519993       3.23851716       1.62265958       0.00000000
Si       1.65185487      -2.42713574      -2.61881366       0.00000000
