10
Lattice="16.28999089631971 0.0 0.0 0.0 16.28999089631971 0.0 0.0 0.0 34.36671206372826" Properties=species:S:1:pos:R:3:initial_magmoms:R:1 pbc="T T T"
Si       0.08648361       1.14521958       2.02564387       0.00000000
Si      -1.73609046       0.60939261      -1.47526067       0.00000000
Si      -0.67768029      -2.18059569       0.62303447       0.00000000
Si       1.75920597       1.12493853      -1.15317567       0.00000000
Si       0.72964539       3.26818125      -1.05801419       0.00000000
Si       0.54822366       3.34357137       1.34143662       0.00000000
Si      -3.61027125      -0.45147735      -0.49323133       0.00000000
Si       1.40222691       0.44518941      -3.39508938       0.00000000
Si      -3.00245877      -1.78745283       1.30432055       0.00000000
Si      -0.97554294      -0.10930590      -3.65710134       0.00000000
