10
Lattice="16.28999089631971 0.0 0.0 0.0 16.28999089631971 0.0 0.0 0.0 34.36671206372826" Properties=species:S:1:pos:R:3:initial_magmoms:R:1 pbc="T T T"
Si       1.74131955       1.16436033       0.99385150       0.00000000
Si      -0.42044490      -2.20273380       0.63392872       0.00000000
Si      -1.85049513       1.29955104      -0.63953050       0.00000000
Si       1.27325898      -1.37060802      -1.48742650       0.00000000
Si       2.09766330       0.49094802      -2.68376678       0.00000000
Si      -2.27010924      -2.56862349      -0.83586764       0.00000000
Si      -1.78784379       0.84567906      -2.95581382       0.00000000
Si      -1.03954635       3.43401345       0.42731594       0.00000000
Si      -0.48130434      -2.06162982       2.96151870       0.00000000
Si       2.98791180       1.89237672      -0.99034609       0.00000000
