10
Lattice="16.28999089631971 0.0 0.0 0.0 16.28999089631971 0.0 0.0 0.0 34.36671206372826" Properties=species:S:1:pos:R:3:initial_magmoms:R:1 pbc="T T T"
Si      -1.46206008       1.21212261      -1.37601643       0.00000000
Si       1.34985456       1.36314720       1.35539982       0.00000000
Si      -1.36594908      -1.35187452       1.35718689       0.00000000
Si       1.11203685      -1.50122124      -1.43480072       0.00000000
Si      -2.37669471      -0.54793044      -2.73233182       0.00000000
Si       2.27411658      -0.13245399      -2.87698139       0.00000000
Si      -0.63099315      -2.33175060      -2.94351538       0.00000000
Si       2.70008379       2.70977634      -0.01312465       0.00000000
Si       2.69514792      -2.71915938      -0.02693664       0.00000000
Si       2.70883152       0.00302994       2.71278261       0.00000000
