10
Lattice="16.28999089631971 0.0 0.0 0.0 16.28999089631971 0.0 0.0 0.0 34.36671206372826" Properties=species:S:1:pos:R:3:initial_magmoms:R:1 pbc="T T T"
Si       1.79809020      -0.91235403       1.23098195       0.00000000
Si      -2.08741689      -0.55762299       0.95893490       0.00000000
Si      -0.19940589       2.36555235       0.01738957       0.00000000
Si       0.19034865      -1.17706653      -2.06093851       0.00000000
Si      -3.63488544       0.70814259      -0.30088073       0.00000000
Si      -2.10927807      -2.92034088       0.96433048       0.00000000
Si      -2.49842988       2.75338467      -0.49708040       0.00000000
Si      -1.75985757      -0.56519784      -3.30831339       0.00000000
Si       1.97908839      -0.11520288      -3.24177939       0.00000000
Si       0.97368588      -2.77391007       2.42732223       0.00000000
