10
Lattice="16.28999089631971 0.0 0.0 0.0 16.28999089631971 0.0 0.0 0.0 34.36671206372826" Properties=species:S:1:pos:R:3:initial_magmoms:R:1 pbc="T T T"
Si       1.96108957       0.79605646      -0.97346550       0.00000000
Si      -1.40382168       1.27913641       1.44037844       0.00000000
Si       1.30303873      -1.42867946       1.44811783       0.00000000
Si      -0.85676278      -0.34551253      -2.23636146       0.00000000
Si      -1.37794390      -2.58235011      -1.82038655       0.00000000
Si       1.12528225      -0.82787572      -3.42032972       0.00000000
Si       2.65898575       2.62113919       0.23355631       0.00000000
Si       2.67534091      -2.71354977       0.07468234       0.00000000
Si      -0.04785676       2.63402458       2.82147427       0.00000000
Si       0.76364425      -3.60741465      -1.16919778       0.00000000
