10
Lattice="16.28999089631971 0.0 0.0 0.0 16.28999089631971 0.0 0.0 0.0 34.36671206372826" Properties=species:S:1:pos:R:3:initial_magmoms:R:1 pbc="T T T"
Si       2.13921909       0.95177583      -0.37824024       0.00000000
Si       0.97352298      -1.94759982       0.99880031       0.00000000
Si      -1.11926961       0.14866254      -2.13090917       0.00000000
Si      -1.50618969       1.41141447       1.38061470       0.00000000
Si      -0.72793494       2.46930336      -2.26370222       0.00000000
Si       1.65154536       2.63127483      -1.92680516       0.00000000
Si       3.31260408      -0.77802669      -1.43151182       0.00000000
Si       1.00691748      -1.41911964       3.37598148       0.00000000
Si      -0.38946132       3.63144825       1.33549118       0.00000000
Si      -0.18578745      -1.22492655      -3.84034475       0.00000000
