10
Lattice="16.28999089631971 0.0 0.0 0.0 16.28999089631971 0.0 0.0 0.0 34.36671206372826" Properties=species:S:1:pos:R:3:initial_magmoms:R:1 pbc="T T T"
Si       1.35824391      -1.35856971       1.36325950       0.00000000
Si      -1.36153449       1.35783359       1.36487473       0.00000000
Si      -1.36725228      -1.36640520      -1.36364440       0.00000000
Si       1.36309833       1.35710361      -1.38443284       0.00000000
Si      -2.71010214       2.70909609       0.01027565       0.00000000
Si       2.57667075      -0.17304867      -2.83159527       0.00000000
Si       2.71438641      -2.71197549       0.00498318       0.00000000
Si       2.71673217       2.71108021       0.00106537       0.00000000
Si      -2.71748151      -2.71303434       0.00488008       0.00000000
Si      -0.00094482       2.71306596       2.72081411       0.00000000
