10
Lattice="16.28999089631971 0.0 0.0 0.0 16.28999089631971 0.0 0.0 0.0 34.36671206372826" Properties=species:S:1:pos:R:3:initial_magmoms:R:1 pbc="T T T"
Si       1.35782037      -1.35752715      -1.36542460       0.00000000
Si      -1.35799956       1.35913986      -1.36583700       0.00000000
Si       1.37179719       1.35764118       1.38106146       0.00000000
Si      -1.36358703      -1.36412460       1.39260868       0.00000000
Si      -2.71210581      -2.71464705      -0.00811055       0.00000000
Si      -2.71440270       2.71243927      -0.00797308       0.00000000
Si       2.71559187       2.71191701      -0.00532684       0.00000000
Si       2.71676475      -2.71244790      -0.00154650       0.00000000
Si       0.00000000      -2.71482624      -2.72229188       0.00000000
Si      -2.71495656       0.00055386      -2.72249808       0.00000000
