10
Lattice="16.28999089631971 0.0 0.0 0.0 16.28999089631971 0.0 0.0 0.0 34.36671206372826" Properties=species:S:1:pos:R:3:initial_magmoms:R:1 pbc="T T T"
Si       1.33294391       1.34539110      -1.34763294       0.00000000
Si      -1.35680386       1.35360126       1.35422105       0.00000000
Si       1.35899162      -1.35969372       1.35294948       0.00000000
Si      -1.35596492      -1.35488817      -1.38109583       0.00000000
Si       2.70684251      -0.01288539      -2.58791796       0.00000000
Si      -0.01986891       2.61470790      -2.79497752       0.00000000
Si       0.00128691       2.71155195       2.71095086       0.00000000
Si      -2.71418346      -0.00288333       2.71077903       0.00000000
Si      -2.71514457       2.71143792      -0.00821365       0.00000000
Si       2.71651877      -0.00293220       2.71119143       0.00000000
