10
Lattice="16.28999089631971 0.0 0.0 0.0 16.28999089631971 0.0 0.0 0.0 34.36671206372826" Properties=species:S:1:pos:R:3:initial_magmoms:R:1 pbc="T T T"
Si       0.40661469      -2.14422012      -0.70974173       0.00000000
Si      -0.93854835      -0.03803715       2.21277073       0.00000000
Si       2.20908690       1.04036085      -0.27758009       0.00000000
Si      -2.20426506       0.22916772      -1.21458902       0.00000000
Si       0.44385363      -1.34967537      -2.95138051       0.00000000
Si       1.48629960       2.79495675       1.11853400       0.00000000
Si      -1.98519714       2.05612380       1.82587007       0.00000000
Si      -1.59469326      -3.05790993      -0.00573924       0.00000000
Si      -0.64260792       3.45175181       0.42525393       0.00000000
Si       3.66476130      -0.36333216       1.21795696       0.00000000
