10
Lattice="16.28999089631971 0.0 0.0 0.0 16.28999089631971 0.0 0.0 0.0 34.36671206372826" Properties=species:S:1:pos:R:3:initial_magmoms:R:1 pbc="T T T"
Si       1.67140287       0.32760819       1.60186771       0.00000000
Si      -1.04664879       2.09416095      -0.38690066       0.00000000
Si      -1.46127816      -1.64841768       0.90721297       0.00000000
Si       0.93854835       0.03803715      -2.21277073       0.00000000
Si      -0.23284926      -3.46906953       0.12437320       0.00000000
Si       2.29514697       2.52006300       1.24366327       0.00000000
Si      -1.26571671       0.26720487      -3.42735974       0.00000000
Si       3.36790863      -1.16695044       0.87569868       0.00000000
Si      -0.65614491      -3.01987278      -2.21850997       0.00000000
Si       1.34516304      -2.10618297      -2.92251246       0.00000000
