10
Lattice="16.28999089631971 0.0 0.0 0.0 16.28999089631971 0.0 0.0 0.0 34.36671206372826" Properties=species:S:1:pos:R:3:initial_magmoms:R:1 pbc="T T T"
Si       2.34396810       0.36963639       0.00804182       0.00000000
Si      -1.63374039       1.52620751      -0.88862057       0.00000000
Si      -1.11672837      -2.22003378       0.04512352       0.00000000
Si       1.45629342       0.71654727       2.17524226       0.00000000
Si      -2.20209849      -0.46490031      -2.19160082       0.00000000
Si      -1.46922768      -1.78772976       2.35192097       0.00000000
Si      -2.67786423       2.13729265       1.34559500       0.00000000
Si      -0.11943828       2.60632574      -2.59936209       0.00000000
Si       0.40560471      -0.81282213       3.58423154       0.00000000
Si      -0.33847362      -1.16214489      -3.59919340       0.00000000
