10
Lattice="16.28999089631971 0.0 0.0 0.0 16.28999089631971 0.0 0.0 0.0 34.36671206372826" Properties=species:S:1:pos:R:3:initial_magmoms:R:1 pbc="T T T"
Si       0.77427999       1.88590633      -1.22650194       0.00000000
Si       1.30740282      -1.38655008       1.48473558       0.00000000
Si      -1.41182172       1.31231914       1.50848299       0.00000000
Si      -1.78900038      -1.18517406      -1.22358077       0.00000000
Si       2.56385052       2.67127981       0.11992958       0.00000000
Si      -1.32406749       3.31357822      -1.20131113       0.00000000
Si      -0.90132570      -1.53208494      -3.39078121       0.00000000
Si       2.52097524      -2.91670236       0.03757315       0.00000000
Si      -3.07825614       2.38087798       0.18642921       0.00000000
Si       2.66103666      -0.03257348       2.87023379       0.00000000
