10
Lattice="16.28999089631971 0.0 0.0 0.0 16.28999089631971 0.0 0.0 0.0 34.36671206372826" Properties=species:S:1:pos:R:3:initial_magmoms:R:1 pbc="T T T"
Si      -1.35479043      -1.35577703       1.35707348       0.00000000
Si       1.35757602       1.35724820       1.35573318       0.00000000
Si      -1.35790182       1.35658846      -1.35724532       0.00000000
Si       1.35751086      -1.35756893      -1.35762335       0.00000000
Si      -0.00239463      -2.71395578       2.71304723       0.00000000
Si       2.71208644       0.00030031       2.71524670       0.00000000
Si      -2.71482624      -2.71462367       0.00044677       0.00000000
Si       0.00128691      -2.71504721      -2.71479994       0.00000000
Si       2.71486657      -2.71506350      -0.00017183       0.00000000
Si       2.71515831       2.71526405      -0.00037803       0.00000000
