10
Lattice="16.28999089631971 0.0 0.0 0.0 16.28999089631971 0.0 0.0 0.0 34.36671206372826" Properties=species:S:1:pos:R:3:initial_magmoms:R:1 pbc="T T T"
Si      -1.34527707      -1.34752509      -1.36143806       0.00000000
Si       1.31162193      -1.41858207       1.35913549       0.00000000
Si       1.36710012       1.36611198      -1.36679927       0.00000000
Si      -1.33964073       1.42465824       1.38037413       0.00000000
Si       2.24826502       0.25057278       2.60805687       0.00000000
Si       0.41783850       1.99637208       3.11046411       0.00000000
Si      -2.68956045       2.72807001      -0.01804253       0.00000000
Si      -2.70558981      -2.71458841       0.01556813       0.00000000
Si      -2.70760977       0.00676035      -2.72071101       0.00000000
Si       0.00959481      -2.70819621      -2.72146708       0.00000000
