10
Lattice="16.28999089631971 0.0 0.0 0.0 16.28999089631971 0.0 0.0 0.0 34.36671206372826" Properties=species:S:1:pos:R:3:initial_magmoms:R:1 pbc="T T T"
Si      -1.22813568       1.98115722       0.46164830       0.00000000
Si      -0.37872621      -1.66366512       1.71173815       0.00000000
Si       2.08905308       1.23300639       0.22348685       0.00000000
Si      -1.82894346      -1.12081716      -1.58430631       0.00000000
Si       0.54545829      -3.14460531      -0.26283676       0.00000000
Si      -2.23616088      -0.72417195       2.88398735       0.00000000
Si      -3.43951947       1.41835401      -0.20162961       0.00000000
Si      -2.82243798       0.84737322      -2.37422563       0.00000000
Si      -0.49394538       2.76358221       2.57045967       0.00000000
Si       2.38973390       1.50304572       2.58046038       0.00000000
