10
Lattice="16.28999089631971 0.0 0.0 0.0 16.28999089631971 0.0 0.0 0.0 34.36671206372826" Properties=species:S:1:pos:R:3:initial_magmoms:R:1 pbc="T T T"
Si       1.92643001      -1.32045274       0.34205208       0.00000000
Si       0.98862285       1.24170525      -1.75479967       0.00000000
Si      -1.63918125      -1.70209812      -0.51299220       0.00000000
Si       0.04434138       1.06909641       2.17293968       0.00000000
Si       2.12609654       2.98374156      -0.62124740       0.00000000
Si       1.45802409      -3.43178891      -0.42906864       0.00000000
Si       2.06528597       2.60337006       1.82009645       0.00000000
Si       0.81871815      -0.71877833       3.68889057       0.00000000
Si      -0.77986746      -3.82071266       0.16633498       0.00000000
Si      -2.07272331       2.22130440       2.45801172       0.00000000
