10
Lattice="16.28999089631971 0.0 0.0 0.0 16.28999089631971 0.0 0.0 0.0 34.36671206372826" Properties=species:S:1:pos:R:3:initial_magmoms:R:1 pbc="T T T"
Si       1.33716695       1.35532800       1.36413928       0.00000000
Si      -1.23452136       1.36873467      -1.46907810       0.00000000
Si      -1.37992590      -1.35829278       1.36132121       0.00000000
Si       1.31534975      -1.45502280      -1.42544266       0.00000000
Si      -0.59515515      -2.22865119      -2.51708298       0.00000000
Si      -2.37693906      -0.48231432      -2.43613180       0.00000000
Si       2.66816258      -2.72433960       0.02190192       0.00000000
Si       2.69162018       2.70295083      -0.03516748       0.00000000
Si       2.69334692       0.00003258       2.72330914       0.00000000
Si      -0.02263316       2.71189404       2.72303421       0.00000000
