10
Lattice="16.28999089631971 0.0 0.0 0.0 16.28999089631971 0.0 0.0 0.0 34.36671206372826" Properties=species:S:1:pos:R:3:initial_magmoms:R:1 pbc="T T T"
Si       1.35737959       1.35648459      -1.35655798       0.00000000
Si      -1.35721764       1.35664749       1.35731405       0.00000000
Si       1.35826647      -1.35809730       1.35731405       0.00000000
Si      -1.35879777      -1.35786924      -1.35879182       0.00000000
Si       2.71418346       0.00288333      -2.71077903       0.00000000
Si      -2.71419093       2.71358820       0.00051550       0.00000000
Si       0.00032580       2.71283886       2.71531544       0.00000000
Si       2.71387720      -0.00024435       2.71452500       0.00000000
Si       0.00068418      -2.71611315       2.71342527       0.00000000
Si      -2.71575477       0.00206883      -2.71404387       0.00000000
