10
Lattice="16.28999089631971 0.0 0.0 0.0 16.28999089631971 0.0 0.0 0.0 34.36671206372826" Properties=species:S:1:pos:R:3:initial_magmoms:R:1 pbc="T T T"
Si       1.35555606       1.35602847      -1.35724532       0.00000000
Si       1.35697329      -1.35694071       1.35679855       0.00000000
Si      -1.35843939       1.35870003       1.35662672       0.00000000
Si      -1.35824391      -1.35871632      -1.35803575       0.00000000
Si      -0.00156384      -2.71151937      -2.71455937       0.00000000
Si      -0.00076563       2.71368594       2.71260047       0.00000000
Si       2.71419093      -2.71358820      -0.00051550       0.00000000
Si      -0.00232947      -2.71474479       2.71366583       0.00000000
Si      -2.71114470       0.00125433      -2.71785858       0.00000000
Si      -2.71451673      -2.71451673       0.00010310       0.00000000
