10
Lattice="16.28999089631971 0.0 0.0 0.0 16.28999089631971 0.0 0.0 0.0 34.36671206372826" Properties=species:S:1:pos:R:3:initial_magmoms:R:1 pbc="T T T"
Si      -1.34991972       1.30341177      -1.39841666       0.00000000
Si      -1.92461463      -0.83632860       1.14640542       0.00000000
Si       1.33964073      -1.42465824      -1.38037413       0.00000000
Si       1.75747923       0.57171384       1.73008999       0.00000000
Si      -0.46983618      -1.21567383       2.91491741       0.00000000
Si       2.47547727       2.38917285       0.08736023       0.00000000
Si      -2.80678329       2.51203203      -0.04845709       0.00000000
Si      -2.64065787      -2.75064795       0.04357702       0.00000000
Si      -0.01262475       2.65983120      -2.74164035       0.00000000
Si       2.70674085      -0.05854626      -2.74717340       0.00000000
