10
Lattice="16.28999089631971 0.0 0.0 0.0 16.28999089631971 0.0 0.0 0.0 34.36671206372826" Properties=species:S:1:pos:R:3:initial_magmoms:R:1 pbc="T T T"
Si       1.34887716       1.36436895      -1.38676634       0.00000000
Si      -1.36534635      -1.35115776      -1.38442940       0.00000000
Si      -1.56916683       1.25273358       1.31215617       0.00000000
Si       1.47890394      -1.36774098       1.45295666       0.00000000
Si       2.69368182      -2.70542365      -0.04058711       0.00000000
Si       2.70813105       2.70910845      -0.01061932       0.00000000
Si      -2.71486208      -2.71748803      -0.02367868       0.00000000
Si       0.00360009      -2.69611229       2.73875355       0.00000000
Si       2.70575271       0.00526167      -2.74511139       0.00000000
Si      -0.00982287      -2.70981544      -2.74572999       0.00000000
