10
Lattice="16.28999089631971 0.0 0.0 0.0 16.28999089631971 0.0 0.0 0.0 34.36671206372826" Properties=species:S:1:pos:R:3:initial_magmoms:R:1 pbc="T T T"
Si       1.59011577      -1.63993059      -0.43711046       0.00000000
Si      -0.14224428       0.21991500       2.34583871       0.00000000
Si      -2.20846788      -0.25036101      -0.89951482       0.00000000
Si       1.40807502       1.92329514      -0.53783934       0.00000000
Si      -1.14533361       2.33316783       2.19634343       0.00000000
Si       0.85592547      -2.42235558      -2.54592182       0.00000000
Si      -0.06553467       3.58474482       0.53914528       0.00000000
Si       0.85111992      -3.38351445       1.01732398       0.00000000
Si       1.67141916       1.58242689      -2.90027719       0.00000000
Si      -3.23802846       1.89288171      -0.80435335       0.00000000
