10
Lattice="16.28999089631971 0.0 0.0 0.0 16.28999089631971 0.0 0.0 0.0 34.36671206372826" Properties=species:S:1:pos:R:3:initial_magmoms:R:1 pbc="T T T"
Si      -0.41570451      -1.35094599       1.90360761       0.00000000
Si       0.79098768       2.21087880       0.45797106       0.00000000
Si      -2.09585511      -0.02814912      -1.20328236       0.00000000
Si       1.99451732      -1.13666733      -0.76349130       0.00000000
Si       2.00981852       2.64637566      -1.60069924       0.00000000
Si       0.05445747      -3.54369402       1.10581831       0.00000000
Si       1.28763883      -1.09410156       3.48162481       0.00000000
Si       3.77484002      -0.56751102       0.66045984       0.00000000
Si       1.70442826       1.01812500      -3.38309539       0.00000000
Si       1.85333841      -3.44189781      -0.42728157       0.00000000
