10
Lattice="16.28999089631971 0.0 0.0 0.0 16.28999089631971 0.0 0.0 0.0 34.36671206372826" Properties=species:S:1:pos:R:3:initial_magmoms:R:1 pbc="T T T"
Si       1.35158130       1.35413883      -1.38875961       0.00000000
Si      -1.35966114      -1.35985662      -1.38064906       0.00000000
Si      -1.31575959       1.29686319       1.59523493       0.00000000
Si       1.45347525      -1.23171948       1.53684586       0.00000000
Si      -2.20410216      -0.67875543       2.64149570       0.00000000
Si      -0.43204338      -2.52599256       2.60028999       0.00000000
Si       0.44914788       2.14519752       2.99244876       0.00000000
Si      -2.70462870       2.71023246       0.00195890       0.00000000
Si       2.70664866      -2.71915938       0.00852295       0.00000000
Si       2.68219737       2.74414824      -0.01917664       0.00000000
