10
Lattice="16.28999089631971 0.0 0.0 0.0 16.28999089631971 0.0 0.0 0.0 34.36671206372826" Properties=species:S:1:pos:R:3:initial_magmoms:R:1 pbc="T T T"
Si      -1.96375950       0.93338442      -0.78679195       0.00000000
Si      -0.26334414       0.34086825       2.36243784       0.00000000
Si       0.08765649      -2.26093797      -1.03062390       0.00000000
Si       2.08997020       1.43438337      -0.00680461       0.00000000
Si       3.02103656      -0.54843543       0.92085656       0.00000000
Si       0.90388569       2.72082096       1.70527721       0.00000000
Si       2.39890517      -2.38925430      -0.52759806       0.00000000
Si       1.98661993      -0.31623777       3.06630286       0.00000000
Si      -1.67141916      -1.58242689       2.90027719       0.00000000
Si       0.92866099       3.24576621      -1.76638125       0.00000000
