10
Lattice="16.28999089631971 0.0 0.0 0.0 16.28999089631971 0.0 0.0 0.0 34.36671206372826" Properties=species:S:1:pos:R:3:initial_magmoms:R:1 pbc="T T T"
Si      -1.49767002      -1.24203105       1.21812432       0.00000000
Si       1.36827855       1.55976750       1.15648759       0.00000000
Si       1.14531732      -1.48680459      -1.54346390       0.00000000
Si      -0.83873952       0.94809429      -2.09676827       0.00000000
Si       1.58641794       0.75644244      -2.30015059       0.00000000
Si       0.14786433      -2.35274841       2.61218328       0.00000000
Si       2.88955296       1.94916366      -0.64418964       0.00000000
Si      -2.57564448       0.36641097       2.62443846       0.00000000
Si       2.85071742       0.36118188       2.61460957       0.00000000
Si      -3.00161169      -2.47581936      -0.23941828       0.00000000
