10
Lattice="16.28999089631971 0.0 0.0 0.0 16.28999089631971 0.0 0.0 0.0 34.36671206372826" Properties=species:S:1:pos:R:3:initial_magmoms:R:1 pbc="T T T"
Si      -1.34472321      -1.34034120       1.37845646       0.00000000
Si       1.37314830       1.36761066       1.37629136       0.00000000
Si      -1.48243887       1.19858562      -1.45812198       0.00000000
Si       1.30726340      -1.37433843      -1.53205857       0.00000000
Si       2.18042369       0.56291724      -2.60761045       0.00000000
Si       0.03883554       1.58798178      -3.25879921       0.00000000
Si      -2.70285309      -2.71393029      -0.00242629       0.00000000
Si      -2.69601129       2.72873790      -0.01095955       0.00000000
Si      -2.70086571       0.01306458       2.73673278       0.00000000
Si       2.72532419      -2.71295289      -0.02164073       0.00000000
