10
Lattice="16.28999089631971 0.0 0.0 0.0 16.28999089631971 0.0 0.0 0.0 34.36671206372826" Properties=species:S:1:pos:R:3:initial_magmoms:R:1 pbc="T T T"
Si       1.31403285      -1.25819073       1.43704487       0.00000000
Si       1.38386500       1.32424668      -1.36738350       0.00000000
Si      -1.33061607      -1.39000941      -1.36958297       0.00000000
Si      -1.48147776       1.32389571       1.62358749       0.00000000
Si      -0.21840003      -2.19903597       3.02891186       0.00000000
Si      -2.68583004       2.67480238       0.01013819       0.00000000
Si      -2.23304949      -0.59895072       3.01162539       0.00000000
Si       0.02935458       2.68119458      -2.72689703       0.00000000
Si      -2.68301187      -0.03183066      -2.72555672       0.00000000
Si      -2.68219737      -2.74414824       0.01917664       0.00000000
