10
Lattice="16.28999089631971 0.0 0.0 0.0 16.28999089631971 0.0 0.0 0.0 34.36671206372826" Properties=species:S:1:pos:R:3:initial_magmoms:R:1 pbc="T T T"
Si       1.53243288       0.94084524      -1.59186699       0.00000000
Si      -1.01032209      -1.77683175      -1.47288937       0.00000000
Si      -2.01464946       1.60008525      -0.01728647       0.00000000
Si       1.76713987      -0.10824705       1.97608705       0.00000000
Si       2.95042429       2.28982014      -0.22568632       0.00000000
Si       0.21840003       2.19903597      -3.02891186       0.00000000
Si      -2.90266623       1.16616852       2.30556090       0.00000000
Si      -2.46379734      -0.54511227      -3.00973522       0.00000000
Si      -1.12528062      -2.42062884       2.95567636       0.00000000
Si      -1.26307773       3.52293168      -1.40532438       0.00000000
