10
Lattice="16.28999089631971 0.0 0.0 0.0 16.28999089631971 0.0 0.0 0.0 34.36671206372826" Properties=species:S:1:pos:R:3:initial_magmoms:R:1 pbc="T T T"
Si      -1.37833274      -1.14041403       1.49838948       0.00000000
Si      -0.30068082      -0.27003933      -2.35697353       0.00000000
Si       1.75143564      -1.63870884       0.12739747       0.00000000
Si       0.38980341       2.15296785       1.05440568       0.00000000
Si      -2.88367928       1.26053649      -0.01000072       0.00000000
Si      -0.66684581      -0.29336661       3.54894924       0.00000000
Si      -1.18032779      -3.36818230       0.83566144       0.00000000
Si      -0.40347072       2.09363967      -3.00076551       0.00000000
Si       3.57703965      -0.80440020      -1.07784379       0.00000000
Si      -2.38973390      -1.50304572      -2.58046038       0.00000000
