10
Lattice="16.28999089631971 0.0 0.0 0.0 16.28999089631971 0.0 0.0 0.0 34.36671206372826" Properties=species:S:1:pos:R:3:initial_magmoms:R:1 pbc="T T T"
Si      -1.33716695      -1.35532800      -1.36413928       0.00000000
Si       1.35617997      -1.35529542       1.35916985       0.00000000
Si      -1.35980011       1.35656604       1.35889492       0.00000000
Si       1.35445323       1.34762283      -1.39930676       0.00000000
Si      -2.57168831       0.01340667      -2.83321738       0.00000000
Si      -0.00066137      -2.71350675       2.71634644       0.00000000
Si       2.71875702      -2.71173114       0.00061860       0.00000000
Si      -2.71709285      -2.71362078      -0.00281807       0.00000000
Si       2.71453791       0.00131949       2.71644954       0.00000000
Si      -2.71574078       0.00156384       2.71610587       0.00000000
