10
Lattice="16.28999089631971 0.0 0.0 0.0 16.28999089631971 0.0 0.0 0.0 34.36671206372826" Properties=species:S:1:pos:R:3:initial_magmoms:R:1 pbc="T T T"
Si      -1.35617997       1.35529542      -1.35916985       0.00000000
Si      -1.35684134      -1.35821133       1.35717658       0.00000000
Si       1.35835794       1.35661491       1.35727968       0.00000000
Si       1.36257705      -1.35643572      -1.35855125       0.00000000
Si      -2.69334692      -0.00003258      -2.72330914       0.00000000
Si      -0.02518434      -2.72437218      -2.70140722       0.00000000
Si      -2.71598008       2.71186146      -0.00027493       0.00000000
Si      -2.71437435      -0.00089595       2.71421570       0.00000000
Si       0.00099369       2.71419093       2.71442190       0.00000000
Si       2.71547784       2.71321353       0.00182144       0.00000000
