10
Lattice="16.28999089631971 0.0 0.0 0.0 16.28999089631971 0.0 0.0 0.0 34.36671206372826" Properties=species:S:1:pos:R:3:initial_magmoms:R:1 pbc="T T T"
Si       1.35764118       1.35609363       1.35741715       0.00000000
Si       1.35736425      -1.35757602      -1.35714222       0.00000000
Si      -1.35775358      -1.35798327       1.35652362       0.00000000
Si      -1.35868211       1.35793440      -1.35776082       0.00000000
Si       2.71448415      -0.00097740      -2.71260047       0.00000000
Si      -0.00136836       2.71277370      -2.71438754       0.00000000
Si      -0.00099369      -2.71419093      -2.71442190       0.00000000
Si       2.71435383      -2.71432125      -0.00044677       0.00000000
Si       2.71443528       2.71484253       0.00048113       0.00000000
Si      -2.71533067       2.71472850       0.00010310       0.00000000
