10
Lattice="16.28999089631971 0.0 0.0 0.0 16.28999089631971 0.0 0.0 0.0 34.36671206372826" Properties=species:S:1:pos:R:3:initial_magmoms:R:1 pbc="T T T"
Si       1.35510993      -1.35894438      -1.36085382       0.00000000
Si      -1.36159848       1.35552348      -1.35978846       0.00000000
Si       1.33710948       1.35816246       1.38157696       0.00000000
Si      -1.36466100      -1.35842310       1.39322729       0.00000000
Si       2.62416446      -0.11867265       2.76229476       0.00000000
Si       2.71248884      -2.71520091      -0.00024057       0.00000000
Si       2.71429703       2.71396287      -0.00020620       0.00000000
Si       2.71286351      -0.00096111      -2.71737744       0.00000000
Si      -0.00246716       2.71376739      -2.71727434       0.00000000
Si      -2.72161800      -2.71122615      -0.00116847       0.00000000
