10
Lattice="16.28999089631971 0.0 0.0 0.0 16.28999089631971 0.0 0.0 0.0 34.36671206372826" Properties=species:S:1:pos:R:3:initial_magmoms:R:1 pbc="T T T"
Si       1.44839277      -1.23585714      -1.40927655       0.00000000
Si      -1.28705498       1.47683511      -1.38071780       0.00000000
Si      -0.94037283      -1.92766086       1.07420092       0.00000000
Si       1.20536226       1.45275849       1.49728975       0.00000000
Si       0.08832438      -2.59652826      -2.76253533       0.00000000
Si       2.69799867      -2.68156206      -0.03845637       0.00000000
Si      -2.62416446       0.11867265      -2.76229476       0.00000000
Si       2.68079643       2.78518275       0.13272432       0.00000000
Si       0.86959278      -3.64286754       1.04763544       0.00000000
Si       2.80598508       0.11735316      -2.76480353       0.00000000
