10
Lattice="16.28999089631971 0.0 0.0 0.0 16.28999089631971 0.0 0.0 0.0 34.36671206372826" Properties=species:S:1:pos:R:3:initial_magmoms:R:1 pbc="T T T"
Si       0.93106635      -1.98281880       0.92766118       0.00000000
Si      -1.18608451       1.28643759       1.71208182       0.00000000
Si      -2.08997020      -1.43438337       0.00680461       0.00000000
Si       1.92306219       1.53163467       0.74916037       0.00000000
Si      -1.16130921       1.81138284      -1.75957664       0.00000000
Si      -2.35331434      -1.09351512       2.36924245       0.00000000
Si      -0.10335028      -1.75062114       3.07310748       0.00000000
Si      -2.32156513       2.91903768       0.32531548       0.00000000
Si       0.30893496      -3.82363767      -0.52079345       0.00000000
Si       1.09929318       2.72152143      -2.52708885       0.00000000
