10
Lattice="16.28999089631971 0.0 0.0 0.0 16.28999089631971 0.0 0.0 0.0 34.36671206372826" Properties=species:S:1:pos:R:3:initial_magmoms:R:1 pbc="T T T"
Si      -0.79098768      -2.21087880      -0.45797106       0.00000000
Si      -1.59898797       1.65007926       0.66630219       0.00000000
Si       1.21883083       0.43549686      -2.05867030       0.00000000
Si       1.49085754       0.24478983       1.93587797       0.00000000
Si       3.22338049       0.91445544      -0.94566934       0.00000000
Si       2.62400623       2.18660670       0.94432904       0.00000000
Si       1.20352963      -3.34754613      -1.22146236       0.00000000
Si       2.28115060      -1.97615619       2.28549073       0.00000000
Si      -1.68690510       1.84321350       3.00966649       0.00000000
Si      -0.89278389       3.82728663       0.20791872       0.00000000
