10
Lattice="16.28999089631971 0.0 0.0 0.0 16.28999089631971 0.0 0.0 0.0 34.36671206372826" Properties=species:S:1:pos:R:3:initial_magmoms:R:1 pbc="T T T"
Si       1.35664856      -1.35679410      -1.35786392       0.00000000
Si       1.35698250       1.35733167       1.35731405       0.00000000
Si      -1.35735571       1.35749457      -1.35745152       0.00000000
Si      -1.35913132      -1.35824391       1.35748589       0.00000000
Si      -2.71357966       0.00001629      -2.71462810       0.00000000
Si       2.71396231      -0.00195480      -2.71449064       0.00000000
Si      -2.71542043      -2.71414206      -0.00013747       0.00000000
Si      -2.71486657       2.71506350       0.00017183       0.00000000
Si       2.71521664       2.71480649       0.00010310       0.00000000
Si       2.71533067      -2.71472850      -0.00010310       0.00000000
