10
Lattice="16.28999089631971 0.0 0.0 0.0 16.28999089631971 0.0 0.0 0.0 34.36671206372826" Properties=species:S:1:pos:R:3:initial_magmoms:R:1 pbc="T T T"
Si       1.07731797      -1.48792860       1.43426116       0.00000000
Si       1.40782578       1.21199229      -1.44735489       0.00000000
Si      -1.41799141      -1.34897490      -1.36618067       0.00000000
Si      -0.63581662       1.92090607       1.31298097       0.00000000
Si      -1.18328442      -2.39806719       2.20177337       0.00000000
Si      -2.95042429      -2.28982014       0.22568632       0.00000000
Si       2.73966360       2.60356947      -0.04450492       0.00000000
Si       2.48661474      -2.86158285       0.09083127       0.00000000
Si      -2.69986780       2.66738880       0.16478848       0.00000000
Si       0.02120143       2.58219373      -2.80693714       0.00000000
