10
Lattice="16.28999089631971 0.0 0.0 0.0 16.28999089631971 0.0 0.0 0.0 34.46413024517268" Properties=species:S:1:pos:R:3:initial_magmoms:R:1 pbc="T T T"
Si      -1.58188932       0.33762654      -1.75074433       0.00000000
Si       1.04860359       1.64113605       1.56553196       0.00000000
Si       1.80631665      -1.08725976      -1.34168934       0.00000000
Si      -1.57547269      -1.18447848       1.58738223       0.00000000
Si      -0.60388659       2.76236046      -2.12829909       0.00000000
Si       2.61649980      -2.64433941       0.27498945       0.00000000
Si      -2.70988874       2.37482136      -1.38180561       0.00000000
Si      -2.50002467      -3.04785900       0.12934395       0.00000000
Si       2.41398252       0.29230776       3.12706122       0.00000000
Si      -0.29230776      -2.41979805       3.15072775       0.00000000
