10
Lattice="16.28999089631971 0.0 0.0 0.0 16.28999089631971 0.0 0.0 0.0 34.46413024517268" Properties=species:S:1:pos:R:3:initial_magmoms:R:1 pbc="T T T"
Si      -1.12799942       2.03719482       0.36893872       0.00000000
Si       1.58188932      -0.33762654       1.75074433       0.00000000
Si      -0.77079556      -0.77385645      -2.22659084       0.00000000
Si       0.97800273       2.42473392      -0.37755476       0.00000000
Si       1.00546767       0.17505234      -3.38692983       0.00000000
Si       0.00641663      -1.52210502       3.33812656       0.00000000
Si       0.72958023       2.42170398      -2.69468292       0.00000000
Si       3.38820597      -1.42488630       0.40905499       0.00000000
Si      -0.91813535      -3.38548554       1.88008828       0.00000000
Si      -2.49462521       0.64671300      -3.04638957       0.00000000
