10
Lattice="16.28999089631971 0.0 0.0 0.0 16.28999089631971 0.0 0.0 0.0 34.46413024517268" Properties=species:S:1:pos:R:3:initial_magmoms:R:1 pbc="T T T"
Si      -1.35705474      -1.35572665       1.35747392       0.00000000
Si       1.35783666      -1.35641083      -1.35864570       0.00000000
Si      -1.35487188       1.35825807      -1.36033445       0.00000000
Si       1.35782037       1.35894062       1.35747392       0.00000000
Si       0.00073305      -2.71369363       2.71467213       0.00000000
Si       2.71420722       2.71492348       0.00031018       0.00000000
Si      -2.71448415      -2.71475248       0.00041357       0.00000000
Si       2.71492398      -2.71553440       0.00024125       0.00000000
Si       2.71551042       0.00135882       2.71512016       0.00000000
Si      -2.71542897       0.00184368       2.71536141       0.00000000
