10
Lattice="16.28999089631971 0.0 0.0 0.0 16.28999089631971 0.0 0.0 0.0 34.46413024517268" Properties=species:S:1:pos:R:3:initial_magmoms:R:1 pbc="T T T"
Si      -1.35707103      -1.35595338      -1.35712928       0.00000000
Si      -1.35685926       1.35745222       1.35781856       0.00000000
Si       1.35830907       1.35903235      -1.35675017       0.00000000
Si       1.35907470      -1.35407784       1.36343622       0.00000000
Si      -2.70296549      -0.01119449       2.71425856       0.00000000
Si      -2.71363218       0.00138791      -2.71477552       0.00000000
Si       0.00130320      -2.71352371      -2.71501677       0.00000000
Si      -2.71407201      -2.71583689      -0.00034464       0.00000000
Si       0.00156384       2.71585903      -2.71467213       0.00000000
Si       2.71617831       0.00114356      -2.71501677       0.00000000
