10
Lattice="16.28999089631971 0.0 0.0 0.0 16.28999089631971 0.0 0.0 0.0 34.46413024517268" Properties=species:S:1:pos:R:3:initial_magmoms:R:1 pbc="T T T"
Si      -1.28332620       1.27591425      -1.61788503       0.00000000
Si      -1.92261096      -0.81199134       1.43367416       0.00000000
Si       1.40379075      -1.43634143      -1.58848711       0.00000000
Si       1.62629586       1.29455001       1.51611240       0.00000000
Si      -2.70959715       2.58209532      -0.28674172       0.00000000
Si      -2.74139523      -2.63431780       0.01988581       0.00000000
Si       0.05769918       2.62853811      -2.98790391       0.00000000
Si       2.64359007      -2.98151702      -0.19489477       0.00000000
Si      -2.65808817      -0.08562024      -2.98852426       0.00000000
Si       2.87112879       2.79863829      -0.04597518       0.00000000
