10
Lattice="16.28999089631971 0.0 0.0 0.0 16.28999089631971 0.0 0.0 0.0 34.46413024517268" Properties=species:S:1:pos:R:3:initial_magmoms:R:1 pbc="T T T"
Si       0.08469171      -0.49787779      -2.31878244       0.00000000
Si       2.23596540       0.19916154       0.84437166       0.00000000
Si      -1.10144835       2.15449911       0.11035421       0.00000000
Si      -0.64176084      -2.12583590       1.04919210       0.00000000
Si      -0.59326551      -3.52695509      -0.89761877       0.00000000
Si      -2.16924156       2.03085801       2.27515083       0.00000000
Si       2.27014182      -0.88499498       2.94292819       0.00000000
Si       1.12700736      -2.68660286      -2.51702023       0.00000000
Si      -1.97390817      -1.02973000      -3.25396714       0.00000000
Si       0.38975454       3.88031058      -0.78247405       0.00000000
