10
Lattice="16.28999089631971 0.0 0.0 0.0 16.28999089631971 0.0 0.0 0.0 34.46413024517268" Properties=species:S:1:pos:R:3:initial_magmoms:R:1 pbc="T T T"
Si       1.34454402       0.49485762      -1.88205274       0.00000000
Si       1.31473332      -1.38463371       1.40837747       0.00000000
Si      -2.00770992      -0.78421689      -1.22585533       0.00000000
Si      -1.58907321       1.43278695       1.29867808       0.00000000
Si      -3.37406625       1.42412067      -0.42466725       0.00000000
Si      -0.18225252       1.51961265      -3.38455180       0.00000000
Si       1.88362899      -1.65395628      -2.75630482       0.00000000
Si       2.43382374       0.22051773       2.81421635       0.00000000
Si      -2.37180771       1.50032529      -2.49237836       0.00000000
Si      -0.26989272      -2.40358950       2.88396145       0.00000000
