10
Lattice="16.28999089631971 0.0 0.0 0.0 16.28999089631971 0.0 0.0 0.0 34.46413024517268" Properties=species:S:1:pos:R:3:initial_magmoms:R:1 pbc="T T T"
Si      -1.46586121       1.08147844      -1.46224494       0.00000000
Si       1.83357145       1.51852285       0.28539762       0.00000000
Si      -0.67812568      -0.57752448       2.29303772       0.00000000
Si       0.30040389      -1.88830978      -1.73209923       0.00000000
Si       0.80120410       3.65599891       0.71185701       0.00000000
Si      -1.23136666       1.39385548       3.53188604       0.00000000
Si       1.10869903      -1.72231468       3.43583446       0.00000000
Si       3.21646213       1.58190724      -1.79782236       0.00000000
Si      -3.09538249      -0.07155382      -2.58246765       0.00000000
Si      -1.35507292      -3.56712460      -1.42326598       0.00000000
