10
Lattice="16.28999089631971 0.0 0.0 0.0 16.28999089631971 0.0 0.0 0.0 34.46413024517268" Properties=species:S:1:pos:R:3:initial_magmoms:R:1 pbc="T T T"
Si       1.35733167       1.35671265      -1.35709482       0.00000000
Si      -1.35654975       1.35754344       1.35712928       0.00000000
Si       1.35729909      -1.35736425       1.35778410       0.00000000
Si      -1.35840681      -1.35764118      -1.35692249       0.00000000
Si      -2.71381626       0.00058644       2.71415517       0.00000000
Si      -0.00206883       2.71603170       2.71315571       0.00000000
Si      -0.00123804      -2.71524978       2.71463766       0.00000000
Si       2.71523349       2.71467963       0.00027571       0.00000000
Si      -2.71414206      -0.00131949      -2.71591284       0.00000000
Si      -2.71489140      -2.71544526       0.00010339       0.00000000
