10
Lattice="16.28999089631971 0.0 0.0 0.0 16.28999089631971 0.0 0.0 0.0 34.46413024517268" Properties=species:S:1:pos:R:3:initial_magmoms:R:1 pbc="T T T"
Si       1.99873413       0.85313988      -0.93749379       0.00000000
Si      -1.69500708       1.31061195      -1.11594916       0.00000000
Si      -0.72609417      -2.29965930      -0.24035298       0.00000000
Si       0.23169267       0.93630033       2.29607057       0.00000000
Si      -1.89423378       1.86569370       2.14821937       0.00000000
Si       1.08910053       2.88582237      -1.90369623       0.00000000
Si      -2.10898485      -2.36304369       1.84286700       0.00000000
Si       2.49787602      -0.75632841      -2.65391183       0.00000000
Si      -1.97625393       3.22747254       0.17187271       0.00000000
Si       1.26698733      -3.59964202      -0.04656107       0.00000000
