10
Lattice="16.28999089631971 0.0 0.0 0.0 16.28999089631971 0.0 0.0 0.0 34.46413024517268" Properties=species:S:1:pos:R:3:initial_magmoms:R:1 pbc="T T T"
Si       1.67060466       0.59543208       1.57359860       0.00000000
Si      -0.96519879       2.12439519      -0.45499570       0.00000000
Si      -1.49120289      -1.72581147       0.89282826       0.00000000
Si       0.91566090      -0.56827665      -2.20260379       0.00000000
Si      -1.77057639       1.81819206      -2.61289949       0.00000000
Si       2.43835236      -1.47448935       2.35286749       0.00000000
Si       0.50930685       2.17912959       2.97859859       0.00000000
Si       0.90383436       3.61271475      -0.47071135       0.00000000
Si      -3.37693329      -1.53697779      -0.60443225       0.00000000
Si      -0.38975454      -3.88031058       0.78247405       0.00000000
