10
Lattice="16.28999089631971 0.0 0.0 0.0 16.28999089631971 0.0 0.0 0.0 34.46413024517268" Properties=species:S:1:pos:R:3:initial_magmoms:R:1 pbc="T T T"
Si       1.35446463      -1.35658233       1.36236783       0.00000000
Si      -1.36115982       1.35949824       1.36295372       0.00000000
Si       1.35392706       1.36311462      -1.37051171       0.00000000
Si      -1.35293337      -1.37143881      -1.38076824       0.00000000
Si       2.71529865      -2.71399545       0.00327409       0.00000000
Si      -2.71700910      -2.71461447       0.00354981       0.00000000
Si       2.71236645       0.00138465       2.71973836       0.00000000
Si      -0.00286704      -2.71329498       2.71946265       0.00000000
Si       2.71717200       2.71564074       0.00713408       0.00000000
Si      -0.00325800       2.71700910       2.71994514       0.00000000
