10
Lattice="16.28999089631971 0.0 0.0 0.0 16.28999089631971 0.0 0.0 0.0 34.46413024517268" Properties=species:S:1:pos:R:3:initial_magmoms:R:1 pbc="T T T"
Si       1.35448092       1.35848826       1.35602643       0.00000000
Si       1.35654975      -1.35754344      -1.35712928       0.00000000
Si      -1.35726651      -1.35695700       1.35702589       0.00000000
Si      -1.35899325       1.35786924      -1.35706035       0.00000000
Si       0.00245979       2.71116099       2.71305231       0.00000000
Si       2.71388142      -0.00083079      -2.71422409       0.00000000
Si       2.71393029       2.71432125      -0.00003446       0.00000000
Si       2.71384884      -2.71490769       0.00065482       0.00000000
Si      -0.00174303       2.71524978      -2.71363820       0.00000000
Si      -0.00185706      -2.71518462      -2.71405177       0.00000000
