10
Lattice="16.28999089631971 0.0 0.0 0.0 16.28999089631971 0.0 0.0 0.0 34.46413024517268" Properties=species:S:1:pos:R:3:initial_magmoms:R:1 pbc="T T T"
Si       1.35202113      -1.35267273      -1.35702589       0.00000000
Si      -1.33615467      -1.35083196       1.37494724       0.00000000
Si      -1.36000323       1.36171368      -1.35633660       0.00000000
Si       1.34952876       1.35050616       1.38001347       0.00000000
Si      -0.18937125       2.56823253       2.70926126       0.00000000
Si      -2.44077957       0.03616380       2.90026157       0.00000000
Si       2.70868491      -2.70728397       0.00620355       0.00000000
Si      -0.00245979      -2.71116099      -2.71305231       0.00000000
Si       2.71147050       0.00316026      -2.71308678       0.00000000
Si      -2.71826343       0.00363267      -2.71243196       0.00000000
