10
Lattice="16.28999089631971 0.0 0.0 0.0 16.28999089631971 0.0 0.0 0.0 34.46413024517268" Properties=species:S:1:pos:R:3:initial_magmoms:R:1 pbc="T T T"
Si      -1.91125683       0.97946883       0.92057190       0.00000000
Si      -1.20586725      -0.79237818      -1.86909422       0.00000000
Si       0.54942912      -2.18116584       0.71902555       0.00000000
Si       1.97539056       1.29938814       0.12472576       0.00000000
Si      -1.70248419      -2.86137108       0.76424252       0.00000000
Si      -2.83270068      -1.04505237       1.74602274       0.00000000
Si      -2.14736409       1.20384729      -2.54211013       0.00000000
Si      -1.05754680       2.38975929       2.54703851       0.00000000
Si       0.48334059      -1.34977311      -3.44383014       0.00000000
Si       3.42370188       0.46174005      -1.49240107       0.00000000
