10
Lattice="16.28999089631971 0.0 0.0 0.0 16.28999089631971 0.0 0.0 0.0 34.46413024517268" Properties=species:S:1:pos:R:3:initial_magmoms:R:1 pbc="T T T"
Si      -0.86973939       0.19303650      -2.14763348       0.00000000
Si      -1.23375573      -1.01719647       1.70576862       0.00000000
Si       0.30472074       2.16171558       0.86729032       0.00000000
Si       2.25740304      -0.71340426      -0.15950008       0.00000000
Si       0.60965325      -1.00253547       3.18128225       0.00000000
Si       2.68110594      -0.43155468       2.13584674       0.00000000
Si       3.09488823       1.15820271      -1.30481270       0.00000000
Si       1.77916122       3.08742741      -0.75535076       0.00000000
Si      -2.02318542      -2.97069327       0.73250103       0.00000000
Si       0.78289740      -0.76813866      -3.59309437       0.00000000
