10
Lattice="16.28999089631971 0.0 0.0 0.0 16.28999089631971 0.0 0.0 0.0 34.46413024517268" Properties=species:S:1:pos:R:3:initial_magmoms:R:1 pbc="T T T"
Si       1.14870564       1.20791979       1.63173962       0.00000000
Si      -1.19203704       1.52612865      -1.32238942       0.00000000
Si       1.53890001      -1.21772637      -1.32924778       0.00000000
Si       0.90613125      -0.93173913       2.88502842       0.00000000
Si      -2.25140832      -2.53206873       0.19100032       0.00000000
Si      -1.17960777      -2.14189065       2.43113557       0.00000000
Si      -2.53097730       0.15214860      -2.70350574       0.00000000
Si       0.18937125      -2.56823253      -2.70926126       0.00000000
Si       2.77182495       2.68330509       0.08678073       0.00000000
Si      -0.52960419       2.45763972       2.92772950       0.00000000
