10
Lattice="16.28999089631971 0.0 0.0 0.0 16.28999089631971 0.0 0.0 0.0 34.46413024517268" Properties=species:S:1:pos:R:3:initial_magmoms:R:1 pbc="T T T"
Si       0.75276090      -2.15430363      -0.60226101       0.00000000
Si       1.21741686       1.82101023      -0.91809048       0.00000000
Si      -2.31721992      -0.61315560      -0.26792430       0.00000000
Si       0.20339694       0.32272119       2.44216410       0.00000000
Si       3.39657903       1.06189623      -0.17900679       0.00000000
Si      -2.25362376      -1.46579049      -2.45336495       0.00000000
Si       0.48801582       3.60337473       0.54101822       0.00000000
Si      -0.09057240      -2.39420646      -2.80920729       0.00000000
Si      -2.43037026      -2.49611670       1.23719404       0.00000000
Si      -0.33752880      -3.64317705       0.87525154       0.00000000
