10
Lattice="16.28999089631971 0.0 0.0 0.0 16.28999089631971 0.0 0.0 0.0 34.46413024517268" Properties=species:S:1:pos:R:3:initial_magmoms:R:1 pbc="T T T"
Si       0.06359616      -0.85263489      -2.18544065       0.00000000
Si      -2.01433995       1.24520760      -0.40919285       0.00000000
Si       2.31721992       0.61315560       0.26792430       0.00000000
Si      -0.11315034      -1.88296110       1.50511834       0.00000000
Si       0.36839835      -0.35473104       3.38679197       0.00000000
Si       3.06998082      -1.54114803      -0.33433671       0.00000000
Si      -1.84977837      -2.35597383      -2.25123271       0.00000000
Si       1.97969112      -3.03002145       1.14317584       0.00000000
Si       2.52061686       0.93587679       2.71008840       0.00000000
Si       2.22664752      -1.78105086      -2.54128299       0.00000000
