10
Lattice="16.28999089631971 0.0 0.0 0.0 16.28999089631971 0.0 0.0 0.0 34.46413024517268" Properties=species:S:1:pos:R:3:initial_magmoms:R:1 pbc="T T T"
Si      -1.35544203      -1.35605166       1.35737053       0.00000000
Si      -1.35180936       1.35857488      -1.35847338       0.00000000
Si       1.35856971      -1.35232125      -1.36047230       0.00000000
Si       1.35948195       1.35855045       1.35688803       0.00000000
Si      -2.71274112       0.00111526       2.71449981       0.00000000
Si       0.00226431      -2.71382316       2.71453427       0.00000000
Si      -2.71404432       2.71467992      -0.00031018       0.00000000
Si      -2.71332756      -2.71577796      -0.00037911       0.00000000
Si       0.00232947       2.71635779       2.71449981       0.00000000
Si       2.71707426      -2.71442589      -0.00051696       0.00000000
