10
Lattice="16.28999089631971 0.0 0.0 0.0 16.28999089631971 0.0 0.0 0.0 34.46413024517268" Properties=species:S:1:pos:R:3:initial_magmoms:R:1 pbc="T T T"
Si       0.56516526      -0.15398937      -2.24465006       0.00000000
Si      -0.01861947      -1.93048718       1.31480730       0.00000000
Si       1.67503554       1.48263435       0.84364792       0.00000000
Si      -2.26830105       0.77576238       0.02657186       0.00000000
Si      -1.57669281      -1.32773274      -2.51729594       0.00000000
Si       1.27480653       2.12538888      -2.53476927       0.00000000
Si       0.36781191       3.44509065       0.79460543       0.00000000
Si      -3.25273833      -0.79627801       1.54475211       0.00000000
Si       0.67709385      -1.15586184       3.43741981       0.00000000
Si      -2.03201460       3.01363371       0.87845671       0.00000000
