10
Lattice="16.28999089631971 0.0 0.0 0.0 16.28999089631971 0.0 0.0 0.0 34.46413024517268" Properties=species:S:1:pos:R:3:initial_magmoms:R:1 pbc="T T T"
Si      -2.08542951       0.77884608      -0.70510203       0.00000000
Si       0.80516583      -1.72252319      -1.40410392       0.00000000
Si       1.73946249       1.62682203      -0.45261768       0.00000000
Si      -1.43148375      -0.68409040       2.10913702       0.00000000
Si       2.41880436      -2.87614841      -0.02715775       0.00000000
Si      -0.93229299      -3.37393823      -1.40186375       0.00000000
Si       3.45649365      -1.15791812       1.19928347       0.00000000
Si      -2.04291261       1.36471593      -2.94854585       0.00000000
Si       3.83132655       0.37521246      -0.59733264       0.00000000
Si       1.19860191      -0.73937866      -3.65326878       0.00000000
