10
Lattice="16.28999089631971 0.0 0.0 0.0 16.28999089631971 0.0 0.0 0.0 34.46413024517268" Properties=species:S:1:pos:R:3:initial_magmoms:R:1 pbc="T T T"
Si       1.35620766      -1.35501849      -1.36019659       0.00000000
Si      -1.35856971       1.36073628      -1.35923159       0.00000000
Si       1.34521191       1.36433637       1.37487832       0.00000000
Si      -1.35793440      -1.34421822       1.38945665       0.00000000
Si       2.71355562      -2.71155195      -0.00079268       0.00000000
Si      -2.71837746      -2.70837540       0.00351534       0.00000000
Si      -0.00135207      -2.71181259      -2.71739480       0.00000000
Si       2.71366965       0.00272043      -2.71753265       0.00000000
Si       2.71451673       2.71689507      -0.00006893       0.00000000
Si      -2.71653669       0.00332316      -2.71701569       0.00000000
