10
Lattice="16.28999089631971 0.0 0.0 0.0 16.28999089631971 0.0 0.0 0.0 34.46413024517268" Properties=species:S:1:pos:R:3:initial_magmoms:R:1 pbc="T T T"
Si       0.85807575       1.81498293       1.34282666       0.00000000
Si      -1.45196028       1.17792990      -1.55977848       0.00000000
Si      -1.24483293      -1.50408828       1.56208758       0.00000000
Si       1.25999892      -1.51531209      -1.55088673       0.00000000
Si       2.54904291       2.57411322      -0.15887973       0.00000000
Si      -1.74397482       0.10538001       3.27850561       0.00000000
Si      -2.75509512       2.54487267      -0.14419800       0.00000000
Si      -0.10130751       2.55101400      -2.93875803       0.00000000
Si      -0.85770108       3.52025271       1.45569675       0.00000000
Si       2.61793332      -0.17109387      -2.94034338       0.00000000
