10
Lattice="16.28999089631971 0.0 0.0 0.0 16.28999089631971 0.0 0.0 0.0 34.46413024517268" Properties=species:S:1:pos:R:3:initial_magmoms:R:1 pbc="T T T"
Si       1.49384187      -1.20767544       1.35917645       0.00000000
Si      -1.26381078       1.49490072       1.37505408       0.00000000
Si      -0.85421502      -1.74229695      -1.41094302       0.00000000
Si       0.89739981       1.77021801      -1.39922521       0.00000000
Si      -1.22243418      -0.53460522      -3.42747487       0.00000000
Si       0.11311776      -2.55764403       2.73828007       0.00000000
Si      -2.66170455      -2.63896371      -0.06788748       0.00000000
Si      -2.59854822       0.15765462       2.74575879       0.00000000
Si      -2.72070693       2.71513575      -0.04098477       0.00000000
Si       2.65551435       2.79601560      -0.03847233       0.00000000
