10
Lattice="16.28999089631971 0.0 0.0 0.0 16.28999089631971 0.0 0.0 0.0 34.46413024517268" Properties=species:S:1:pos:R:3:initial_magmoms:R:1 pbc="T T T"
Si       1.35519768       1.35819504      -1.35706035       0.00000000
Si       1.35697329      -1.35687555       1.35702589       0.00000000
Si      -1.35785295       1.35718506       1.35681910       0.00000000
Si      -1.35790182      -1.35796698      -1.35737053       0.00000000
Si       0.00480555       2.71425609      -2.71260428       0.00000000
Si       2.71420722       2.71515204      -0.00003446       0.00000000
Si       2.71529865       0.00123804       2.71436195       0.00000000
Si       2.71502172      -2.71474479      -0.00037911       0.00000000
Si      -2.71523349      -2.71467963      -0.00027571       0.00000000
Si       0.00003258      -2.71463076       2.71529248       0.00000000
