10
Lattice="16.28999089631971 0.0 0.0 0.0 16.28999089631971 0.0 0.0 0.0 34.46413024517268" Properties=species:S:1:pos:R:3:initial_magmoms:R:1 pbc="T T T"
Si       1.58845419       1.05940386      -1.35120145       0.00000000
Si      -1.25061588      -1.63437570      -1.22216767       0.00000000
Si      -1.66565250       1.50087915       0.85322895       0.00000000
Si       0.95087988       0.00073305       2.40332300       0.00000000
Si       0.18466344       2.40792264      -2.64788061       0.00000000
Si      -1.16595675      -0.27601776       3.44613924       0.00000000
Si       2.03307345       2.26931103       2.01977148       0.00000000
Si      -2.53720008      -0.29463723      -2.64974167       0.00000000
Si       1.74765636      -2.24145513       2.42117543       0.00000000
Si      -2.94158304      -2.39350599       0.27953872       0.00000000
