10
Lattice="16.28999089631971 0.0 0.0 0.0 16.28999089631971 0.0 0.0 0.0 34.46413024517268" Properties=species:S:1:pos:R:3:initial_magmoms:R:1 pbc="T T T"
Si      -0.19442115      -1.89475506      -1.36488371       0.00000000
Si      -1.04655105       2.04625206      -0.48615129       0.00000000
Si       0.36821916      -1.20769173       2.01653185       0.00000000
Si       2.06368236       1.19959560      -0.33488814       0.00000000
Si       1.22243418       0.53460522       3.42747487       0.00000000
Si       2.89432575      -0.55623834      -2.26756872       0.00000000
Si       2.11983399       2.30482323       2.02824966       0.00000000
Si      -2.70977634       1.89511344       1.84507271       0.00000000
Si       1.98210204      -2.70185940      -1.80654179       0.00000000
Si      -1.16261730      -1.20853881      -3.45578920       0.00000000
