10
Lattice="16.28999089631971 0.0 0.0 0.0 16.28999089631971 0.0 0.0 0.0 34.46413024517268" Properties=species:S:1:pos:R:3:initial_magmoms:R:1 pbc="T T T"
Si      -1.35721764      -1.35505107       1.35795642       0.00000000
Si       1.36321236      -1.35641943      -1.35485465       0.00000000
Si      -1.35708732       1.35912357      -1.35888695       0.00000000
Si       1.35788553       1.35972630       1.35774963       0.00000000
Si       2.69794980      -0.01917333      -2.72555935       0.00000000
Si       2.71360449      -2.71248048       0.00068928       0.00000000
Si      -2.71511946      -2.71256193       0.00096500       0.00000000
Si       0.00055386      -2.71349046       2.71456874       0.00000000
Si      -2.71419093       0.00184077       2.71443088       0.00000000
Si       2.71332756       2.71577796       0.00037911       0.00000000
