10
Lattice="16.28999089631971 0.0 0.0 0.0 16.28999089631971 0.0 0.0 0.0 34.46413024517268" Properties=species:S:1:pos:R:3:initial_magmoms:R:1 pbc="T T T"
Si      -1.35520633       1.35400851       1.35661232       0.00000000
Si       1.35751575       1.35536058      -1.35671571       0.00000000
Si      -1.35712721      -1.35918873      -1.35678464       0.00000000
Si       1.35694560      -1.36042677       1.35836999       0.00000000
Si      -0.01147793       2.69881317       2.71057089       0.00000000
Si      -2.71512176       2.71155195       0.00031018       0.00000000
Si      -0.00017756       2.71337643      -2.71418963       0.00000000
Si      -2.71473080      -0.00141723      -2.71463766       0.00000000
Si       2.71536870      -0.00201996      -2.71412070       0.00000000
Si       2.71644384       2.71401174      -0.00006893       0.00000000
