10
Lattice="16.28999089631971 0.0 0.0 0.0 16.28999089631971 0.0 0.0 0.0 34.46413024517268" Properties=species:S:1:pos:R:3:initial_magmoms:R:1 pbc="T T T"
Si       1.27651698      -0.31695453       1.96176832       0.00000000
Si      -1.92832875       1.36616085       0.41212230       0.00000000
Si      -0.83843001      -2.23858809      -0.42701081       0.00000000
Si       2.00761218       0.31469022      -1.46369243       0.00000000
Si       0.16768926      -2.16777546      -2.63916118       0.00000000
Si      -1.36031274       1.97289819       2.65642772       0.00000000
Si      -0.34803585      -0.17112645       3.60250308       0.00000000
Si       2.60149671       1.60133958       1.95880440       0.00000000
Si      -1.29189474      -0.60227388      -3.43466268       0.00000000
Si      -3.72695652      -0.25519914       0.33716277       0.00000000
