10
Lattice="16.28999089631971 0.0 0.0 0.0 16.28999089631971 0.0 0.0 0.0 34.46413024517268" Properties=species:S:1:pos:R:3:initial_magmoms:R:1 pbc="T T T"
Si       1.38393324       1.93121112       0.12775860       0.00000000
Si      -0.63184023      -0.32400810       2.29886216       0.00000000
Si       1.17240759      -2.05917003      -0.47084921       0.00000000
Si      -1.52796942       0.69037020      -1.76597748       0.00000000
Si       1.54732194      -1.08312210       3.03794585       0.00000000
Si      -0.46538901      -3.61351296      -1.21489573       0.00000000
Si       1.34975682       3.01536764      -1.97079793       0.00000000
Si       2.04999876      -2.97093762       1.61950485       0.00000000
Si       0.43670232       3.65553206       1.49126375       0.00000000
Si       2.64243348      -1.93267818      -2.39298376       0.00000000
