10
Lattice="16.28999089631971 0.0 0.0 0.0 16.28999089631971 0.0 0.0 0.0 34.46413024517268" Properties=species:S:1:pos:R:3:initial_magmoms:R:1 pbc="T T T"
Si       1.34372840       1.34480466       1.35395858       0.00000000
Si       1.35520633      -1.35400851      -1.35661232       0.00000000
Si      -1.35991543       1.35754344      -1.35630214       0.00000000
Si      -1.36011091      -1.35627282       1.37422350       0.00000000
Si       2.66064295      -0.04671972       2.70354021       0.00000000
Si       2.71272208       0.00135207      -2.71332803       0.00000000
Si       2.71215193      -2.71443528       0.00175767       0.00000000
Si      -0.00192088      -2.71319724      -2.71339695       0.00000000
Si       2.71174468       2.71562445       0.00558319       0.00000000
Si      -0.00205413       2.71666701      -2.71315571       0.00000000
