10
Lattice="16.28999089631971 0.0 0.0 0.0 16.28999089631971 0.0 0.0 0.0 34.46413024517268" Properties=species:S:1:pos:R:3:initial_magmoms:R:1 pbc="T T T"
Si       1.17716427      -1.90286748      -0.51592832       0.00000000
Si       1.84894758       1.41147963       0.11018189       0.00000000
Si      -1.47023766      -0.32733126       1.88208720       0.00000000
Si      -1.87046667       0.31542327      -1.49632998       0.00000000
Si      -2.39057379       2.38949865      -0.52785291       0.00000000
Si      -2.58010794      -1.96395498      -1.20621077       0.00000000
Si      -0.45235701      -3.05589974      -1.63615103       0.00000000
Si      -2.77746129       1.63512504       1.83304472       0.00000000
Si       2.65087074       1.48916664      -2.18957635       0.00000000
Si      -3.14527320      -1.80996561       1.03843929       0.00000000
