10
Lattice="16.28999089631971 0.0 0.0 0.0 16.28999089631971 0.0 0.0 0.0 34.46413024517268" Properties=species:S:1:pos:R:3:initial_magmoms:R:1 pbc="T T T"
Si      -0.90987795      -2.13597642       0.47491598       0.00000000
Si      -0.36746982       0.05053484      -2.37878453       0.00000000
Si      -1.20801753       1.57135783       1.43701718       0.00000000
Si       2.31432749      -0.36098544       0.82662263       0.00000000
Si       2.11198940       2.86460464      -0.06072583       0.00000000
Si      -1.58285043       0.03822725       3.23363329       0.00000000
Si       2.59021493      -2.60763708       0.13437572       0.00000000
Si       0.46125039       3.27727922       1.62246877       0.00000000
Si      -2.62053972      -1.68000303       2.00719207       0.00000000
Si       1.59820280      -0.68584062      -3.33812859       0.00000000
