10
Lattice="16.28999089631971 0.0 0.0 0.0 16.28999089631971 0.0 0.0 0.0 34.46413024517268" Properties=species:S:1:pos:R:3:initial_magmoms:R:1 pbc="T T T"
Si      -1.57710006       1.76912658      -0.15240047       0.00000000
Si      -0.65904453      -1.08496287       2.02597503       0.00000000
Si      -0.80205444      -1.86435792      -1.31484177       0.00000000
Si       2.12506308       0.49024755       1.23822796       0.00000000
Si       2.02357638       0.89705772      -1.21827322       0.00000000
Si       0.92791098       2.06452944       2.52057004       0.00000000
Si      -2.11896899      -0.47283354      -2.66442340       0.00000000
Si       0.63252441       2.25965106      -2.64408955       0.00000000
Si      -0.94029138       0.83189772       3.31379690       0.00000000
Si      -3.42983474       0.85017510      -1.23788332       0.00000000
