10
Lattice="16.28999089631971 0.0 0.0 0.0 16.28999089631971 0.0 0.0 0.0 34.46413024517268" Properties=species:S:1:pos:R:3:initial_magmoms:R:1 pbc="T T T"
Si      -1.49384187       1.20767544      -1.35917645       0.00000000
Si       1.33395552       1.36591650       1.38041326       0.00000000
Si      -1.38072411      -1.34996859       1.37910362       0.00000000
Si       1.33418358      -1.42078122      -1.61229495       0.00000000
Si      -2.34805689      -0.53462151      -2.77011947       0.00000000
Si      -0.53454006      -2.38044141      -2.80889164       0.00000000
Si       2.67182946      -2.71028133      -0.00128207       0.00000000
Si       2.69362451       2.71062342      -0.01403380       0.00000000
Si       2.68887210       0.00889434       2.74126467       0.00000000
Si      -0.02415807      -2.70736542       2.74229859       0.00000000
