10
Lattice="16.28999089631971 0.0 0.0 0.0 16.28999089631971 0.0 0.0 0.0 34.46413024517268" Properties=species:S:1:pos:R:3:initial_magmoms:R:1 pbc="T T T"
Si       1.37411037       1.33786512       1.35557839       0.00000000
Si       1.35625653      -1.35808101      -1.36019659       0.00000000
Si      -1.35782037       1.35971001      -1.36009320       0.00000000
Si      -1.36930482      -1.35255870       1.37494724       0.00000000
Si       0.05566293       2.72209158       2.65249880       0.00000000
Si       2.71454938       2.71339272       0.00265374       0.00000000
Si      -2.71697652       2.71417464      -0.00234356       0.00000000
Si       2.71411783       0.00104256      -2.71705015       0.00000000
Si      -2.71451673      -2.71689507       0.00006893       0.00000000
Si      -0.00084708      -2.71417464      -2.71746372       0.00000000
