10
Lattice="16.28999089631971 0.0 0.0 0.0 16.28999089631971 0.0 0.0 0.0 34.46413024517268" Properties=species:S:1:pos:R:3:initial_magmoms:R:1 pbc="T T T"
Si       1.16848170      -0.18946899      -2.02594056       0.00000000
Si       1.41692049       1.61573994       1.26714338       0.00000000
Si      -1.85880303       1.71403380       0.00892621       0.00000000
Si      -1.08219357      -2.26857798       0.38355152       0.00000000
Si       2.77669796      -1.64152701      -0.86542926       0.00000000
Si      -0.43308594       3.07874484       1.25370237       0.00000000
Si       1.47219246       0.06076170       3.02984678       0.00000000
Si      -0.09498699      -1.67992254       2.98073536       0.00000000
Si      -0.44461926      -1.20990717      -3.37097293       0.00000000
Si      -2.03307345      -2.26931103      -2.01977148       0.00000000
