10
Lattice="16.28999089631971 0.0 0.0 0.0 16.28999089631971 0.0 0.0 0.0 34.46413024517268" Properties=species:S:1:pos:R:3:initial_magmoms:R:1 pbc="T T T"
Si       1.31844744      -1.38422646      -1.29692041       0.00000000
Si       1.61310096       1.02043818       1.34503236       0.00000000
Si      -1.40379075       1.34851878      -1.29667916       0.00000000
Si      -1.58845419      -1.05940386       1.35120145       0.00000000
Si       0.44461926       1.20990717       3.37097293       0.00000000
Si       2.65888645      -0.00869886      -2.64984506       0.00000000
Si      -0.05823675       2.71223613      -2.65577290       0.00000000
Si      -0.05566293      -2.72209158      -2.65249880       0.00000000
Si      -2.78484066       2.63544507       0.13082591       0.00000000
Si      -2.77263945      -0.00791694      -2.65484236       0.00000000
