10
Lattice="16.28999089631971 0.0 0.0 0.0 16.28999089631971 0.0 0.0 0.0 34.46413024517268" Properties=species:S:1:pos:R:3:initial_magmoms:R:1 pbc="T T T"
Si       1.71633069      -0.75492747      -1.39907215       0.00000000
Si      -0.77858055       2.00738412      -0.94542055       0.00000000
Si      -1.36720341      -1.86888654      -0.46119925       0.00000000
Si       0.43377012       0.31389201       2.36789386       0.00000000
Si      -2.40313338       2.15321220       0.69531422       0.00000000
Si       2.16870399      -2.82994767      -0.28133085       0.00000000
Si      -0.00894321      -3.62344986       0.27367981       0.00000000
Si      -1.01377557       2.23495542       2.68844491       0.00000000
Si      -1.38771252      -1.62033372      -2.95343976       0.00000000
Si       3.28351014       0.98575677      -1.34996074       0.00000000
