10
Lattice="16.28999089631971 0.0 0.0 0.0 16.28999089631971 0.0 0.0 0.0 34.46413024517268" Properties=species:S:1:pos:R:3:initial_magmoms:R:1 pbc="T T T"
Si      -1.71633069       0.75492747       1.39907215       0.00000000
Si       1.56717945       1.74068424       0.04911141       0.00000000
Si       0.45237330      -2.07502020       1.11774130       0.00000000
Si      -0.98720658      -0.58865544      -2.59718384       0.00000000
Si       1.41916851      -2.80528461      -0.86025964       0.00000000
Si      -3.08353410      -1.11395907       0.93787290       0.00000000
Si       0.09498699       1.67992254      -2.98073536       0.00000000
Si       2.90437572      -1.03566933      -1.65624363       0.00000000
Si      -3.10404321      -0.86540625      -1.55436761       0.00000000
Si      -1.72527390      -2.86852239       1.67275196       0.00000000
