10
Lattice="16.28999089631971 0.0 0.0 0.0 16.28999089631971 0.0 0.0 0.0 34.46413024517268" Properties=species:S:1:pos:R:3:initial_magmoms:R:1 pbc="T T T"
Si       1.35674523      -1.35361755       1.35716374       0.00000000
Si      -1.35661491      -1.35684297      -1.35685357       0.00000000
Si       1.35840681       1.35823447      -1.35702589       0.00000000
Si      -1.35733167       1.35839508       1.35885249       0.00000000
Si       0.02173086       2.70116937       2.70719341       0.00000000
Si       2.71340901      -2.71415835       0.00037911       0.00000000
Si      -2.71432125       0.00092853      -2.71401731       0.00000000
Si       0.00040725      -2.71432125      -2.71405177       0.00000000
Si      -2.71290402       2.71572775       0.00024125       0.00000000
Si      -2.71546155      -2.71419093       0.00082714       0.00000000
