10
Lattice="16.28999089631971 0.0 0.0 0.0 16.28999089631971 0.0 0.0 0.0 34.46413024517268" Properties=species:S:1:pos:R:3:initial_magmoms:R:1 pbc="T T T"
Si      -1.35516510      -1.35786924      -1.35761178       0.00000000
Si      -1.35666378       1.36054080       1.35678464       0.00000000
Si       1.35981086       1.35799956      -1.35726714       0.00000000
Si       1.36045942      -1.36039419       1.36271247       0.00000000
Si      -2.70221778      -0.00317655       2.71587837       0.00000000
Si      -0.00006516       2.69760771       2.72659672       0.00000000
Si      -2.71191033      -2.71407690      -0.00003446       0.00000000
Si      -2.71300176      -0.00016290      -2.71443088       0.00000000
Si      -2.71340901       2.71415835      -0.00037911       0.00000000
Si       2.71702117       2.71285515      -0.00024125       0.00000000
