10
Lattice="16.28999089631971 0.0 0.0 0.0 16.28999089631971 0.0 0.0 0.0 34.46413024517268" Properties=species:S:1:pos:R:3:initial_magmoms:R:1 pbc="T T T"
Si      -2.06368236      -1.19959560       0.33488814       0.00000000
Si       0.55969182       2.00924118      -1.27158926       0.00000000
Si       0.05615163       1.10522763       2.36313780       0.00000000
Si       0.83064339      -1.75583394      -1.93268058       0.00000000
Si      -3.11023341       0.84665646      -0.15126315       0.00000000
Si      -1.69546320      -2.40728733       2.35141999       0.00000000
Si      -0.84124818      -0.66499038       3.76236301       0.00000000
Si       2.27035359       1.55326779      -2.80386535       0.00000000
Si      -2.25810351      -3.09435066      -1.02999557       0.00000000
Si       1.59738111       3.72747147      -0.04514804       0.00000000
