10
Lattice="16.28999089631971 0.0 0.0 0.0 16.28999089631971 0.0 0.0 0.0 34.46413024517268" Properties=species:S:1:pos:R:3:initial_magmoms:R:1 pbc="T T T"
Si       0.77004296       0.32211846      -2.20532646       0.00000000
Si      -1.58614494       1.75207095       0.05838227       0.00000000
Si      -1.26252780      -1.94002497       0.61470257       0.00000000
Si       2.19462464       0.02112813       0.99501446       0.00000000
Si       1.80241031      -1.81535760      -2.63178585       0.00000000
Si       2.18903717       1.87734105       2.43320342       0.00000000
Si      -1.19313240      -1.98347040       3.05028402       0.00000000
Si      -3.56537994      -1.56794508       0.15770795       0.00000000
Si       2.01716138       2.41337979      -2.32643348       0.00000000
Si      -0.64508793       3.91665357      -0.02488312       0.00000000
