10
Lattice="16.28999089631971 0.0 0.0 0.0 16.28999089631971 0.0 0.0 0.0 34.46413024517268" Properties=species:S:1:pos:R:3:initial_magmoms:R:1 pbc="T T T"
Si       1.28316493      -1.23531957       1.56334552       0.00000000
Si       1.57547269       1.18447848      -1.58738223       0.00000000
Si      -0.92455198      -1.86338052      -1.45803828       0.00000000
Si      -1.42517722       1.45350783       1.52685488       0.00000000
Si      -0.00641663       1.52210502      -3.33812656       0.00000000
Si       2.62021555      -2.59542054       0.20677456       0.00000000
Si       0.86430016      -3.50476092      -1.15003218       0.00000000
Si       2.62407628       2.82561453      -0.02185027       0.00000000
Si      -2.78461816      -2.67789681      -0.07140627       0.00000000
Si      -0.07202298      -2.60415198       2.92088837       0.00000000
