10
Lattice="16.28999089631971 0.0 0.0 0.0 16.28999089631971 0.0 0.0 0.0 34.46413024517268" Properties=species:S:1:pos:R:3:initial_magmoms:R:1 pbc="T T T"
Si      -0.94149684       1.99622547      -0.67301591       0.00000000
Si       1.20586725       0.79237818       1.86909422       0.00000000
Si       1.68920784      -0.55739493      -1.57473592       0.00000000
Si      -1.53982854      -1.81744272       0.57717111       0.00000000
Si      -0.70538958       1.77184701       2.78966612       0.00000000
Si      -0.49661694      -2.06899290       2.63333674       0.00000000
Si       1.75529637      -1.38878766       2.58811977       0.00000000
Si      -2.46262120       1.28541132      -2.26736193       0.00000000
Si      -1.13256225      -3.48338844      -0.98477861       0.00000000
Si      -1.96426449       3.03347493       1.21313806       0.00000000
