10
Lattice="16.28999089631971 0.0 0.0 0.0 16.28999089631971 0.0 0.0 0.0 34.46413024517268" Properties=species:S:1:pos:R:3:initial_magmoms:R:1 pbc="T T T"
Si      -1.34610623      -1.36864670       1.35644000       0.00000000
Si       1.35685926      -1.35745222      -1.35781856       0.00000000
Si      -1.35694560       1.36042677      -1.35836999       0.00000000
Si       1.37476197       1.36153449       1.37063923       0.00000000
Si      -0.05150898       2.66771556       2.70178254       0.00000000
Si      -2.71168946      -2.71372571      -0.00048250       0.00000000
Si      -2.71215193       2.71443528      -0.00175767       0.00000000
Si       2.71593396      -2.71153006       0.00561766       0.00000000
Si      -0.00021177      -2.71340560      -2.71494784       0.00000000
Si      -2.71407281       0.00123804      -2.71515463       0.00000000
