10
Lattice="16.28999089631971 0.0 0.0 0.0 16.28999089631971 0.0 0.0 0.0 34.46413024517268" Properties=species:S:1:pos:R:3:initial_magmoms:R:1 pbc="T T T"
Si      -1.35966899      -1.34470692       1.39444706       0.00000000
Si       1.35518887       1.37023335       1.39472277       0.00000000
Si      -1.53195203       1.29306762      -1.38361498       0.00000000
Si       1.42517722      -1.45350783      -1.52685488       0.00000000
Si       2.70834215      -2.68882740       0.03649064       0.00000000
Si      -2.69362451      -2.71062342       0.01403380       0.00000000
Si       2.71049243       2.71440270       0.01408894       0.00000000
Si      -2.71527392       2.72637411       0.04371433       0.00000000
Si      -0.00475242      -2.70172908       2.75529847       0.00000000
Si       2.71135580       0.01190799       2.75564311       0.00000000
