10
Lattice="16.28999089631971 0.0 0.0 0.0 16.28999089631971 0.0 0.0 0.0 34.46413024517268" Properties=species:S:1:pos:R:3:initial_magmoms:R:1 pbc="T T T"
Si       2.18348065      -0.87882921      -0.11145706       0.00000000
Si      -1.65547681      -1.67881482       0.30883324       0.00000000
Si      -0.30040389       1.88830978       1.73209923       0.00000000
Si      -0.16443778       0.27732096      -2.61158986       0.00000000
Si       1.27907614      -3.04101720      -0.98736342       0.00000000
Si      -1.76626510       2.96978822       0.26985429       0.00000000
Si      -3.50548324      -0.21580992       0.29539223       0.00000000
Si      -2.03785198       1.75670775      -2.87127722       0.00000000
Si      -3.39578638       1.81675595      -0.85036842       0.00000000
Si       0.41785968      -3.88562112       1.04026589       0.00000000
