10
Lattice="10.86 0.0 0.0 0.0 10.86 0.0 0.0 0.0 10.86" Properties=species:S:1:pos:R:3:initial_magmoms:R:1 pbc="T T T"
Si      -1.15372296      -1.44430398       1.26685158       0.00000000
Si      -1.15372296       1.27069602      -1.44814842       0.00000000
Si       1.19378550      -1.48805892      -1.39484754       0.00000000
Si       1.56127704       1.27069602       1.26685158       0.00000000
Si      -2.51122296      -0.08680398       2.62435158       0.00000000
Si      -2.51122296       2.62819602      -0.09064842       0.00000000
Si       0.20377704       2.62819602       2.62435158       0.00000000
Si      -0.07002528      -2.68091046      -2.61783558       0.00000000
Si      -2.51122296      -2.80180398      -0.09064842       0.00000000
Si      -2.51122296      -0.08680398      -2.80564842       0.00000000
