10
Lattice="16.28999089631971 0.0 0.0 0.0 16.28999089631971 0.0 0.0 0.0 34.40246978574605" Properties=species:S:1:pos:R:3:initial_magmoms:R:1 pbc="T T T"
Si      -0.85149459      -1.38015396       1.68892139       0.00000000
Si       1.52583543       1.41667614       1.10201493       0.00000000
Si       0.96257610      -1.29924153      -1.75807040       0.00000000
Si      -1.93280850       1.43553996      -0.30700781       0.00000000
Si       1.41766983       0.48338946      -3.28144701       0.00000000
Si      -1.49110515       0.23351715       3.29403832       0.00000000
Si       0.29970342       1.79147646       3.14892862       0.00000000
Si      -3.13274945       0.99439047       1.76495089       0.00000000
Si       0.72120717      -2.98812357       2.28394684       0.00000000
Si      -0.77563206      -2.61205263      -2.71525085       0.00000000
