10
Lattice="16.28999089631971 0.0 0.0 0.0 16.28999089631971 0.0 0.0 0.0 34.40246978574605" Properties=species:S:1:pos:R:3:initial_magmoms:R:1 pbc="T T T"
Si       1.29560886      -1.35684297      -1.39564017       0.00000000
Si      -0.91693478      -1.71851355       1.34050128       0.00000000
Si       1.74483819       1.05715584       1.37251624       0.00000000
Si      -1.84227194       1.23269688      -1.55423565       0.00000000
Si      -2.31134122      -0.32555565       2.75567519       0.00000000
Si       0.39599361       2.43208562       2.75018455       0.00000000
Si      -0.39130209      -2.12620338      -3.02304992       0.00000000
Si      -2.64263615      -1.03133619      -2.49603819       0.00000000
Si      -2.68393130       2.76627236       0.06367901       0.00000000
Si      -2.21993180      -3.21266493      -0.00567641       0.00000000
