10
Lattice="16.28999089631971 0.0 0.0 0.0 16.28999089631971 0.0 0.0 0.0 34.40246978574605" Properties=species:S:1:pos:R:3:initial_magmoms:R:1 pbc="T T T"
Si      -1.35255870       1.35773729       1.35745341       0.00000000
Si      -1.35602847      -1.35599947      -1.35728140       0.00000000
Si       1.35931905       1.35827486      -1.35731580       0.00000000
Si       1.36068741      -1.35431055       1.36068725       0.00000000
Si      -2.71242672      -2.71454184      -0.00061924       0.00000000
Si      -2.71339109       0.00146610      -2.71514764       0.00000000
Si       0.00197109      -2.71393911      -2.71507884       0.00000000
Si      -2.71357191       2.71655135       0.00003440       0.00000000
Si       0.00198738       2.71622555      -2.71494123       0.00000000
Si       2.71650411       0.00108003      -2.71494123       0.00000000
