10
Lattice="16.28999089631971 0.0 0.0 0.0 16.28999089631971 0.0 0.0 0.0 34.40246978574605" Properties=species:S:1:pos:R:3:initial_magmoms:R:1 pbc="T T T"
Si       0.25161534       0.20510739       2.37012508       0.00000000
Si      -2.06309592      -1.22339529      -0.02308407       0.00000000
Si       2.20449312      -0.51504093      -0.89793937       0.00000000
Si      -0.14432940       1.87328484      -1.67904788       0.00000000
Si       0.10213830       2.54814696       2.70038897       0.00000000
Si       1.89402201       2.98030437      -1.27406178       0.00000000
Si      -1.96532334       3.12896691      -0.96674434       0.00000000
Si      -1.49262012      -3.48349337       0.47664649       0.00000000
Si      -3.28352643      -0.44732340       1.92420002       0.00000000
Si       2.45070018      -0.44878950       2.96886600       0.00000000
