10
Lattice="16.28999089631971 0.0 0.0 0.0 16.28999089631971 0.0 0.0 0.0 34.40246978574605" Properties=species:S:1:pos:R:3:initial_magmoms:R:1 pbc="T T T"
Si       1.13181291      -1.30075650       1.58416581       0.00000000
Si      -1.34890974      -1.36086660      -1.34654782       0.00000000
Si       1.36580247       1.35102744      -1.34379562       0.00000000
Si      -1.38082185       1.34734590       1.33925449       0.00000000
Si       1.75040937       0.82433916       2.72911505       0.00000000
Si      -2.35209681      -0.37901943       2.67530956       0.00000000
Si       0.15555321       2.78601354       2.45785142       0.00000000
Si       2.69526195      -2.68133400       0.02198319       0.00000000
Si      -2.70716994      -0.00495216      -2.70389803       0.00000000
Si       0.00731421       2.71103067      -2.70496450       0.00000000
