10
Lattice="16.28999089631971 0.0 0.0 0.0 16.28999089631971 0.0 0.0 0.0 34.40246978574605" Properties=species:S:1:pos:R:3:initial_magmoms:R:1 pbc="T T T"
Si      -1.34126973       1.37859012      -1.32267250       0.00000000
Si       1.38082185      -1.34734590      -1.33925449       0.00000000
Si       1.53637506       1.43866764       1.11859693       0.00000000
Si      -0.97127496      -1.72636533       1.33605506       0.00000000
Si      -2.41220691      -0.10819818       2.15724248       0.00000000
Si       3.13123122      -0.52300674       1.38986056       0.00000000
Si       2.51263476      -2.64810240       0.24491132       0.00000000
Si      -2.68820838       0.00803097      -2.68521747       0.00000000
Si       0.03191211      -2.70821250      -2.68580232       0.00000000
Si      -2.71720458      -2.67556734       0.10014565       0.00000000
