10
Lattice="16.28999089631971 0.0 0.0 0.0 16.28999089631971 0.0 0.0 0.0 34.40246978574605" Properties=species:S:1:pos:R:3:initial_magmoms:R:1 pbc="T T T"
Si      -1.13181291       1.30075650      -1.58416581       0.00000000
Si      -1.71062919      -0.89529840       1.53933937       0.00000000
Si       0.61859646       2.12509566       1.14494924       0.00000000
Si       1.56344904      -1.38057750      -1.56218262       0.00000000
Si      -2.51263476       2.64810240      -0.24491132       0.00000000
Si      -2.58059664      -2.66869296       0.01843973       0.00000000
Si       1.63528794      -3.00441357       1.49568261       0.00000000
Si      -3.48390972       0.92173707       1.09114374       0.00000000
Si       2.71837746       2.61583191      -0.03715469       0.00000000
Si      -2.48072265      -0.06011010      -2.93071364       0.00000000
