10
Lattice="16.28999089631971 0.0 0.0 0.0 16.28999089631971 0.0 0.0 0.0 34.40246978574605" Properties=species:S:1:pos:R:3:initial_magmoms:R:1 pbc="T T T"
Si      -1.80859725      -1.39874085       0.49687515       0.00000000
Si      -0.60155712       2.30744592       0.05679851       0.00000000
Si      -0.14639823      -0.19847736      -2.40242902       0.00000000
Si       1.92106341      -0.77929731       1.26470430       0.00000000
Si      -2.22814620      -0.72462807       2.72254418       0.00000000
Si       1.38600207       3.32066763      -0.70528543       0.00000000
Si      -3.20852564      -1.23522183      -1.37716604       0.00000000
Si      -2.11214511       2.60068221      -1.79732364       0.00000000
Si       1.67459571      -1.45415943      -3.11473255       0.00000000
Si       2.07054045      -3.12233688       0.93444041       0.00000000
