10
Lattice="16.28999089631971 0.0 0.0 0.0 16.28999089631971 0.0 0.0 0.0 34.40246978574605" Properties=species:S:1:pos:R:3:initial_magmoms:R:1 pbc="T T T"
Si       0.82111048       0.11324971      -2.19525723       0.00000000
Si      -1.09369824       1.94564665       0.80790805       0.00000000
Si      -1.82896368      -1.42533169       0.52219538       0.00000000
Si       1.88179148      -1.04365699       1.01700638       0.00000000
Si       1.50387977      -2.18545567      -2.35598565       0.00000000
Si      -3.51805749      -0.25103216      -0.65120471       0.00000000
Si      -1.54686975       1.18796617       3.05229203       0.00000000
Si       1.94882483       0.04589056       3.08174056       0.00000000
Si      -2.16504267      -1.11453478       2.88275657       0.00000000
Si      -1.02904323       0.58583727      -3.60328230       0.00000000
