10
Lattice="16.28999089631971 0.0 0.0 0.0 16.28999089631971 0.0 0.0 0.0 34.40246978574605" Properties=species:S:1:pos:R:3:initial_magmoms:R:1 pbc="T T T"
Si       1.59127236      -0.11391597       1.72356470       0.00000000
Si      -0.34399593       2.37602682       0.00835980       0.00000000
Si       1.22043051      -0.77607189      -1.94728409       0.00000000
Si      -1.88573692      -1.46945574       0.54077272       0.00000000
Si      -1.74392432       2.53954584      -1.86568138       0.00000000
Si       1.19623986      -2.31921056       2.51093447       0.00000000
Si       3.53514177       0.65243079       0.44592506       0.00000000
Si       0.88433523       1.61966583       3.23792786       0.00000000
Si       1.79090631      -3.03616997      -1.44755353       0.00000000
Si       3.28352643       0.44732340      -1.92420002       0.00000000
