10
Lattice="16.28999089631971 0.0 0.0 0.0 16.28999089631971 0.0 0.0 0.0 34.40246978574605" Properties=species:S:1:pos:R:3:initial_magmoms:R:1 pbc="T T T"
Si      -2.29412070       0.36838206       0.45751870       0.00000000
Si      -0.05162301      -2.30457888      -0.55928126       0.00000000
Si       1.30805442      -0.32562081       1.95474943       0.00000000
Si       1.65654639       1.08384930      -1.73883940       0.00000000
Si       3.07402074      -1.36365219       0.80054592       0.00000000
Si       1.40299254       3.33683450      -0.91706715       0.00000000
Si       0.14506245      -2.34905058      -3.02655897       0.00000000
Si      -2.86459650       2.62848014      -0.04221185       0.00000000
Si       2.05126938      -3.32493561      -0.05480316       0.00000000
Si       0.60093810      -2.32798761       3.08218780       0.00000000
