10
Lattice="16.28999089631971 0.0 0.0 0.0 16.28999089631971 0.0 0.0 0.0 34.40246978574605" Properties=species:S:1:pos:R:3:initial_magmoms:R:1 pbc="T T T"
Si       2.22549093      -0.01606194      -0.57999156       0.00000000
Si      -1.43338968       0.58286013      -1.72074370       0.00000000
Si      -0.22540473       1.61372880       1.72504401       0.00000000
Si      -0.16987212      -2.13706881       1.09262305       0.00000000
Si      -3.45468546       0.27570825      -0.47864183       0.00000000
Si       3.18992409       0.61164619       1.45942239       0.00000000
Si      -1.79548380       0.59241584       3.14621083       0.00000000
Si       2.91792996      -2.25166896      -0.94630927       0.00000000
Si       2.12560065      -2.95466391       1.14990320       0.00000000
Si       1.77116283       1.95598984       2.75852918       0.00000000
