10
Lattice="16.28999089631971 0.0 0.0 0.0 16.28999089631971 0.0 0.0 0.0 34.40246978574605" Properties=species:S:1:pos:R:3:initial_magmoms:R:1 pbc="T T T"
Si      -1.32395346      -1.35109983      -1.36078701       0.00000000
Si       1.36099692      -1.35271497       1.35786624       0.00000000
Si      -1.35529542       1.36191893       1.35814146       0.00000000
Si       1.36948401       1.36631723      -1.38816107       0.00000000
Si      -2.54778858       0.03975900      -2.80014587       0.00000000
Si       2.71560816      -2.70689042       0.00006880       0.00000000
Si      -2.71640637      -2.70941537      -0.00405949       0.00000000
Si       0.00190593      -2.71115840       2.71483802       0.00000000
Si      -2.71347417       0.00340461       2.71504443       0.00000000
Si      -2.71189404       2.71737725      -0.00261459       0.00000000
