10
Lattice="16.28999089631971 0.0 0.0 0.0 16.28999089631971 0.0 0.0 0.0 34.40246978574605" Properties=species:S:1:pos:R:3:initial_magmoms:R:1 pbc="T T T"
Si       1.35736425      -1.35632091       1.35597410       0.00000000
Si       1.35755973       1.35743430      -1.35800385       0.00000000
Si      -1.35814617      -1.35727666      -1.35783184       0.00000000
Si      -1.35692442       1.35712479       1.36330183       0.00000000
Si      -0.02060685      -2.70898043       2.71015928       0.00000000
Si      -0.00021177      -2.71422581      -2.71521645       0.00000000
Si       2.71505430       0.00004561      -2.71463160       0.00000000
Si      -2.71448415      -2.71551272      -0.00013761       0.00000000
Si       2.71494027       2.71528725      -0.00110088       0.00000000
Si      -2.71559187       0.00033720      -2.71501003       0.00000000
