10
Lattice="16.28999089631971 0.0 0.0 0.0 16.28999089631971 0.0 0.0 0.0 34.40246978574605" Properties=species:S:1:pos:R:3:initial_magmoms:R:1 pbc="T T T"
Si       2.36560122       0.10948509      -0.02841646       0.00000000
Si       0.15245811      -1.56046797      -1.84005153       0.00000000
Si      -0.80482374      -1.61556075       1.66896795       0.00000000
Si      -1.11529485       1.87978455       1.29284554       0.00000000
Si      -3.15364626       0.77276502       0.88785944       0.00000000
Si       0.43574121       1.90084752       3.08074289       0.00000000
Si      -3.19345902       0.54864720      -1.79639477       0.00000000
Si       3.23434692      -1.28559051       1.76956083       0.00000000
Si      -1.48282983       1.44394560      -3.33573414       0.00000000
Si       3.24817713      -0.34337691      -2.26175724       0.00000000
