10
Lattice="16.28999089631971 0.0 0.0 0.0 16.28999089631971 0.0 0.0 0.0 34.40246978574605" Properties=species:S:1:pos:R:3:initial_magmoms:R:1 pbc="T T T"
Si       0.24294906      -2.18545011       0.72888553       0.00000000
Si       1.23132852      -0.27230364      -1.97821192       0.00000000
Si       0.71138430       1.37829690       1.76539813       0.00000000
Si      -2.19908484       0.65389689      -0.59874092       0.00000000
Si      -1.24631532       0.99650817       3.04475789       0.00000000
Si       2.59972110       1.62768051      -2.12793156       0.00000000
Si      -2.34856188       2.99693646      -0.26847702       0.00000000
Si      -0.34114518      -3.72870674      -0.99498879       0.00000000
Si      -0.24620706      -0.06625143      -3.86680536       0.00000000
Si      -2.45070018       0.44878950      -2.96886600       0.00000000
