10
Lattice="16.28999089631971 0.0 0.0 0.0 16.28999089631971 0.0 0.0 0.0 34.40246978574605" Properties=species:S:1:pos:R:3:initial_magmoms:R:1 pbc="T T T"
Si      -1.35692442       1.35698958      -1.35779744       0.00000000
Si       1.35755973      -1.35731538      -1.35790064       0.00000000
Si      -1.35751086      -1.35798327       1.35765983       0.00000000
Si       1.36014984       1.35822762       1.35652454       0.00000000
Si      -2.71257822       0.00151497      -2.71535406       0.00000000
Si      -2.71396287       0.00052128       2.71408116       0.00000000
Si       2.71324611       0.00319284       2.71525085       0.00000000
Si      -2.71454931       2.71407690      -0.00110088       0.00000000
Si       0.00200367       2.71378368      -2.71528525       0.00000000
Si       0.00074934       2.71241532       2.71683336       0.00000000
