10
Lattice="16.28999089631971 0.0 0.0 0.0 16.28999089631971 0.0 0.0 0.0 34.40246978574605" Properties=species:S:1:pos:R:3:initial_magmoms:R:1 pbc="T T T"
Si      -1.29684690       0.58398021      -1.87686219       0.00000000
Si      -0.29553318       1.11855285       2.05186765       0.00000000
Si      -0.23633532      -2.33600229       0.51070495       0.00000000
Si       2.24811774       0.42613011      -0.75097193       0.00000000
Si       1.70908164       0.44711163       3.10654476       0.00000000
Si      -3.29628150      -0.71736273      -1.52317020       0.00000000
Si      -0.73629171       3.36751767       1.38483779       0.00000000
Si       0.04663827      -0.26414235      -3.70972360       0.00000000
Si       3.36660543       0.64733202       1.45876874       0.00000000
Si       3.15265257      -1.65333726      -1.45216346       0.00000000
