10
Lattice="16.28999089631971 0.0 0.0 0.0 16.28999089631971 0.0 0.0 0.0 34.40246978574605" Properties=species:S:1:pos:R:3:initial_magmoms:R:1 pbc="T T T"
Si      -0.78923421       2.16187848      -0.24938364       0.00000000
Si       2.21589612      -0.71576631      -0.27528872       0.00000000
Si      -1.21632543      -1.26679185      -1.61595371       0.00000000
Si      -3.03060789       1.26900729      -0.01032075       0.00000000
Si       0.28989684      -0.56848842      -3.30738649       0.00000000
Si      -2.02704615      -2.78378181       0.09759986       0.00000000
Si      -3.14884071      -0.91041552       1.17797563       0.00000000
Si       2.04191892      -2.57456934       1.33227079       0.00000000
Si      -1.06888464       1.05477750       3.37140952       0.00000000
Si       2.49549768      -0.98903106      -2.60667659       0.00000000
