10
Lattice="16.28999089631971 0.0 0.0 0.0 16.28999089631971 0.0 0.0 0.0 34.40246978574605" Properties=species:S:1:pos:R:3:initial_magmoms:R:1 pbc="T T T"
Si      -0.74233530      -1.66750956       1.53275959       0.00000000
Si       1.74858489       0.79144965       1.43186741       0.00000000
Si      -1.84883355       1.75187547       0.07018108       0.00000000
Si      -2.07995607      -1.96519302      -2.19343389       0.00000000
Si      -2.41360785      -2.68278381       0.26996979       0.00000000
Si       0.47658024       2.19170547       2.86160045       0.00000000
Si       1.06888464      -1.05477750      -3.37140952       0.00000000
Si      -2.23365222      -0.53115174       2.90070920       0.00000000
Si       0.27965043       1.10710098      -3.62079316       0.00000000
Si      -3.52292427       0.81319680       1.48419016       0.00000000
