10
Lattice="16.28999089631971 0.0 0.0 0.0 16.28999089631971 0.0 0.0 0.0 34.40246978574605" Properties=species:S:1:pos:R:3:initial_magmoms:R:1 pbc="T T T"
Si       1.35672894      -1.35681039      -1.35735020       0.00000000
Si      -1.35834165      -1.35648459       1.35624932       0.00000000
Si       1.35501849       1.35812988       1.35882951       0.00000000
Si      -1.35827649       1.35821133      -1.35738461       0.00000000
Si      -2.71052568      -0.00506619       2.71652374       0.00000000
Si       2.71456560      -2.71396287       0.00027522       0.00000000
Si       2.71497285       0.00094482      -2.71425318       0.00000000
Si       0.00140094      -2.71511946      -2.71470041       0.00000000
Si      -2.71515204      -2.71482624      -0.00051604       0.00000000
Si      -2.71502172       2.71637379      -0.00034402       0.00000000
