10
Lattice="16.28999089631971 0.0 0.0 0.0 16.28999089631971 0.0 0.0 0.0 34.40246978574605" Properties=species:S:1:pos:R:3:initial_magmoms:R:1 pbc="T T T"
Si      -1.29948588       1.31579217      -1.39687866       0.00000000
Si       1.05969708       1.65905505       1.33911688       0.00000000
Si       1.44262611      -1.40370930      -1.36557240       0.00000000
Si      -1.23373944      -1.23386976       1.72844985       0.00000000
Si      -2.39093217      -2.57878845      -0.04152380       0.00000000
Si       0.88777242      -1.62750132       3.07073177       0.00000000
Si      -1.19348685       2.87621683       1.98970235       0.00000000
Si      -2.73851190       2.48694543       0.09670540       0.00000000
Si      -2.63971305      -0.04235400      -2.75209591       0.00000000
Si       0.07848522       2.66845169      -2.75106384       0.00000000
