10
Lattice="16.28999089631971 0.0 0.0 0.0 16.28999089631971 0.0 0.0 0.0 34.40246978574605" Properties=species:S:1:pos:R:3:initial_magmoms:R:1 pbc="T T T"
Si       1.76596632      -1.03803138      -1.15420351       0.00000000
Si      -1.30805442       0.32562081      -1.95474943       0.00000000
Si       0.58409424       1.54325663       1.72387432       0.00000000
Si      -0.70711632      -2.00236680       1.12743837       0.00000000
Si      -1.35967743      -1.97895807      -2.51403069       0.00000000
Si       0.15447807      -1.42356681       3.23569170       0.00000000
Si       3.23323920      -1.62377091       0.57483119       0.00000000
Si       0.74321496      -2.99931480      -2.00955259       0.00000000
Si      -0.53796096       0.81204021       3.60200940       0.00000000
Si       0.34114518       3.72870674       0.99498879       0.00000000
