10
Lattice="16.28999089631971 0.0 0.0 0.0 16.28999089631971 0.0 0.0 0.0 34.40246978574605" Properties=species:S:1:pos:R:3:initial_magmoms:R:1 pbc="T T T"
Si      -0.51829893      -2.27929680       0.01111200       0.00000000
Si      -1.46727288       0.58573953      -1.72903470       0.00000000
Si      -0.71214993       0.36243621       2.24393675       0.00000000
Si       2.23441785       0.70551990      -0.47475435       0.00000000
Si       0.50279085      -1.43716896       3.20823852       0.00000000
Si      -0.57497184       2.69322570       2.28243313       0.00000000
Si      -3.23323920       1.62377091      -0.57483119       0.00000000
Si      -2.82220992      -2.28876129      -0.47004121       0.00000000
Si       2.75558382      -0.38325483      -2.50969598       0.00000000
Si       2.00824749       3.08572089      -0.74914860       0.00000000
