10
Lattice="16.28999089631971 0.0 0.0 0.0 16.28999089631971 0.0 0.0 0.0 34.40246978574605" Properties=species:S:1:pos:R:3:initial_magmoms:R:1 pbc="T T T"
Si       2.01373722       0.82698044      -0.82211628       0.00000000
Si      -0.13717809      -2.33078949      -0.03849639       0.00000000
Si      -0.13289382       1.09801998       2.09149932       0.00000000
Si      -2.07417312       0.47380184      -1.13339000       0.00000000
Si      -3.19622832      -0.25741458       0.74474508       0.00000000
Si       0.27262944       3.23780759       1.12423894       0.00000000
Si      -2.50378929      -2.49302160       0.37842738       0.00000000
Si       0.57497184      -2.69322570      -2.28243313       0.00000000
Si      -2.23179516       0.37029355       2.78415903       0.00000000
Si       3.70283103      -0.34731909       0.35128382       0.00000000
