10
Lattice="16.28999089631971 0.0 0.0 0.0 16.28999089631971 0.0 0.0 0.0 34.40246978574605" Properties=species:S:1:pos:R:3:initial_magmoms:R:1 pbc="T T T"
Si       1.27216755      -1.34548625       1.49151303       0.00000000
Si      -0.97751403      -1.68436712      -1.42720931       0.00000000
Si       1.92497301       0.87369134      -1.16725443       0.00000000
Si      -1.42671078       1.36988474       1.46039254       0.00000000
Si      -1.03985586      -0.11692962      -3.41429708       0.00000000
Si       1.18998450       0.99234770      -3.42957178       0.00000000
Si       2.62366740      -2.69506388       0.13110101       0.00000000
Si      -2.73856077      -2.68548536       0.06229259       0.00000000
Si       2.63321334       0.00482998       2.84525097       0.00000000
Si       2.73224025       2.78418254       0.10121212       0.00000000
