10
Lattice="16.28999089631971 0.0 0.0 0.0 16.28999089631971 0.0 0.0 0.0 34.40246978574605" Properties=species:S:1:pos:R:3:initial_magmoms:R:1 pbc="T T T"
Si      -1.35558864       1.35672780      -1.35673096       0.00000000
Si      -1.35614250      -1.35957987       1.35569888       0.00000000
Si       1.35822762      -1.35751104      -1.35741901       0.00000000
Si       1.35812988       1.35847898       1.35882951       0.00000000
Si      -0.00760743      -2.70857106       2.71408116       0.00000000
Si      -2.71176372       0.00089982      -2.71428758       0.00000000
Si      -2.71327869       0.00036128       2.71387475       0.00000000
Si      -2.71308321       2.71411649      -0.00010321       0.00000000
Si      -2.71326240      -2.71446804      -0.00030962       0.00000000
Si       0.00215028       2.71476809      -2.71418437       0.00000000
