10
Lattice="16.28999089631971 0.0 0.0 0.0 16.28999089631971 0.0 0.0 0.0 34.40246978574605" Properties=species:S:1:pos:R:3:initial_magmoms:R:1 pbc="T T T"
Si      -1.27658214       1.50063969       1.24829431       0.00000000
Si      -1.36849032      -1.33672404      -1.36694850       0.00000000
Si       1.34374581       1.37773164      -1.36495315       0.00000000
Si       1.42534242      -1.23986888       1.52661045       0.00000000
Si       2.30772285       0.76482039       2.58555346       0.00000000
Si       0.41378229       2.36624142       2.63891172       0.00000000
Si      -0.38727846      -2.34612068       2.72323223       0.00000000
Si       2.69972541      -2.70554324       0.03106545       0.00000000
Si      -0.01135413      -2.69666519      -2.72512436       0.00000000
Si       2.70291825       0.02139366      -2.72199374       0.00000000
