10
Lattice="16.28999089631971 0.0 0.0 0.0 16.28999089631971 0.0 0.0 0.0 34.40246978574605" Properties=species:S:1:pos:R:3:initial_magmoms:R:1 pbc="T T T"
Si       1.45072975      -1.17501399       1.35511404       0.00000000
Si       1.36767582       1.32672276      -1.35160499       0.00000000
Si      -1.34864910      -1.38719124      -1.34874958       0.00000000
Si      -1.28585115       1.39994631       1.46451396       0.00000000
Si      -0.38467206      -2.00010249       2.60175704       0.00000000
Si      -2.27861262      -0.39868146       2.65511530       0.00000000
Si       0.01459584       2.68496667      -2.70627180       0.00000000
Si      -2.70330921      -0.03003876      -2.70781991       0.00000000
Si      -2.72399751       2.69032608       0.04269349       0.00000000
Si       2.72386460       2.69863398       0.02638671       0.00000000
