10
Lattice="16.28999089631971 0.0 0.0 0.0 16.28999089631971 0.0 0.0 0.0 34.40246978574605" Properties=species:S:1:pos:R:3:initial_magmoms:R:1 pbc="T T T"
Si      -1.32338331      -0.69061455      -1.84562473       0.00000000
Si       1.66838175      -1.70664791       0.41860949       0.00000000
Si      -1.33089300       1.26197001       1.76715265       0.00000000
Si       1.37457368       1.81964187      -1.39873640       0.00000000
Si       0.51201850       0.13447395      -3.09226772       0.00000000
Si       0.23944671      -2.52101434       2.09497397       0.00000000
Si       2.92445315       1.79712909       1.00307337       0.00000000
Si      -3.21732387       0.91080648      -1.79226647       0.00000000
Si       3.73556483      -0.54949428       0.74914860       0.00000000
Si      -0.13543506       1.10317509       3.76462997       0.00000000
