10
Lattice="16.28999089631971 0.0 0.0 0.0 16.28999089631971 0.0 0.0 0.0 34.40246978574605" Properties=species:S:1:pos:R:3:initial_magmoms:R:1 pbc="T T T"
Si       1.85015371      -0.47258756       1.40802507       0.00000000
Si       0.44369073      -1.23048633      -1.99837178       0.00000000
Si       0.06880896       2.39370310      -0.32871578       0.00000000
Si      -1.91953215      -1.27135468       0.74261213       0.00000000
Si       1.86278498      -2.85873766      -1.00248853       0.00000000
Si      -1.12664898       2.55249802      -2.32619310       0.00000000
Si      -3.02691006       1.25912089      -1.85429416       0.00000000
Si       1.02904323      -0.58583727       3.60328230       0.00000000
Si      -3.72417093      -0.70144740      -0.67831388       0.00000000
Si      -2.48901426      -0.83686943       2.95207758       0.00000000
