10
Lattice="16.28999089631971 0.0 0.0 0.0 16.28999089631971 0.0 0.0 0.0 34.40246978574605" Properties=species:S:1:pos:R:3:initial_magmoms:R:1 pbc="T T T"
Si       1.42893504       0.81436642      -1.67636448       0.00000000
Si       1.41909425      -1.62825133       0.99588325       0.00000000
Si      -0.44369073       1.23048633       1.99837178       0.00000000
Si      -1.24585920      -1.89762277      -1.11188844       0.00000000
Si      -0.23944671       2.52101434      -2.09497397       0.00000000
Si       0.49591225      -3.48980737      -0.00949509       0.00000000
Si      -2.36322288      -0.04086835       2.74098391       0.00000000
Si       1.89238391      -1.25464018      -2.98665208       0.00000000
Si       1.40646298       0.75789877       3.40639685       0.00000000
Si      -1.61588655      -3.50984407       0.98043653       0.00000000
