10
Lattice="16.28999089631971 0.0 0.0 0.0 16.28999089631971 0.0 0.0 0.0 34.40246978574605" Properties=species:S:1:pos:R:3:initial_magmoms:R:1 pbc="T T T"
Si       1.09369824      -1.94564665      -0.80790805       0.00000000
Si       0.77508245       2.05413642      -0.93588531       0.00000000
Si      -0.45317151      -0.75768048       2.24438398       0.00000000
Si      -2.26157328       0.07988616      -0.92277796       0.00000000
Si      -0.73526544      -3.37097834      -0.28571267       0.00000000
Si      -2.42435925      -2.19667881      -1.45911277       0.00000000
Si      -1.65042135       1.06613163       3.09670565       0.00000000
Si      -0.13913289       3.64364946       0.50437489       0.00000000
Si      -0.00488700       2.69312796       2.61166495       0.00000000
Si      -1.07134443      -3.06018143       2.07484851       0.00000000
