10
Lattice="16.28999089631971 0.0 0.0 0.0 16.28999089631971 0.0 0.0 0.0 34.40246978574605" Properties=species:S:1:pos:R:3:initial_magmoms:R:1 pbc="T T T"
Si       1.35464382      -1.35234693       1.35962077       0.00000000
Si       1.33626870       1.36440153      -1.37738277       0.00000000
Si      -1.36189287       1.36340784       1.35886391       0.00000000
Si      -1.35078309      -1.34718300      -1.38650975       0.00000000
Si      -2.58722667       0.23711724      -2.70457576       0.00000000
Si       2.70914103      -2.71223776      -0.00165132       0.00000000
Si      -0.00309510      -2.71038721       2.71707418       0.00000000
Si       2.71156824       0.00462636       2.71683336       0.00000000
Si       2.71347417       2.71943631      -0.00092887       0.00000000
Si      -2.72026710      -2.71350023       0.00165132       0.00000000
