10
Lattice="16.28999089631971 0.0 0.0 0.0 16.28999089631971 0.0 0.0 0.0 34.40246978574605" Properties=species:S:1:pos:R:3:initial_magmoms:R:1 pbc="T T T"
Si      -0.13424589       0.95052150      -2.10729006       0.00000000
Si      -0.09928755       1.71981675       1.59297285       0.00000000
Si      -1.64553435      -1.62699633       0.48504069       0.00000000
Si       2.23579014      -0.82917729       0.27226130       0.00000000
Si      -0.44828451      -3.45080844      -0.36728097       0.00000000
Si      -0.35437266       0.30017583       3.50478797       0.00000000
Si       2.02940724       2.68537392       1.25510601       0.00000000
Si      -2.43600660       1.30409595      -2.39747506       0.00000000
Si      -1.92513591      -1.35373158       2.81642857       0.00000000
Si       0.77996945      -0.63899154      -3.54755026       0.00000000
