10
Lattice="16.28999089631971 0.0 0.0 0.0 16.28999089631971 0.0 0.0 0.0 34.40246978574605" Properties=species:S:1:pos:R:3:initial_magmoms:R:1 pbc="T T T"
Si       1.34636850       1.34978940       1.36102095       0.00000000
Si       1.42845381      -1.35834165      -1.28078402       0.00000000
Si      -1.36806678      -1.36691019       1.35906001       0.00000000
Si      -1.28047545       1.53122742      -1.29708736       0.00000000
Si       0.12417867      -2.71000440      -2.63457047       0.00000000
Si      -2.52670932       0.19192878      -2.84810436       0.00000000
Si       2.71390291       2.68426620      -0.01330344       0.00000000
Si      -0.00887805       2.70684414       2.71627260       0.00000000
Si       2.70769122      -0.00601101       2.71644461       0.00000000
Si      -2.73085560      -2.70420516      -0.01873904       0.00000000
