10
Lattice="16.28999089631971 0.0 0.0 0.0 16.28999089631971 0.0 0.0 0.0 34.40246978574605" Properties=species:S:1:pos:R:3:initial_magmoms:R:1 pbc="T T T"
Si      -1.25672463      -1.94080689      -0.07847208       0.00000000
Si      -1.55211120       1.56007701       0.94197455       0.00000000
Si       1.51974297      -0.59005638       1.76288674       0.00000000
Si       0.78061680       0.78110550      -2.14275903       0.00000000
Si       3.39569515       0.57653568       0.79765611       0.00000000
Si      -2.54399301      -1.72247202       1.86795195       0.00000000
Si      -2.19975273       0.37242198       2.90532460       0.00000000
Si       1.92365352      -2.97569430       1.78411308       0.00000000
Si      -2.59175529      -2.32784100      -1.98509242       0.00000000
Si       1.71708003      -0.93317265      -3.50760897       0.00000000
