10
Lattice="16.28999089631971 0.0 0.0 0.0 16.28999089631971 0.0 0.0 0.0 34.40246978574605" Properties=species:S:1:pos:R:3:initial_magmoms:R:1 pbc="T T T"
Si       1.74592962       0.94920201       1.23590942       0.00000000
Si      -1.32666737       1.33745787      -1.40998601       0.00000000
Si       1.37178090      -1.39162212      -1.40857551       0.00000000
Si      -1.73724705      -0.85102218       1.61227265       0.00000000
Si       0.30499767       2.56736916       2.05709683       0.00000000
Si      -2.59980222      -2.53619010      -0.08125868       0.00000000
Si       2.64924270      -2.64122802       0.16320541       0.00000000
Si      -2.66608193       2.71715571       0.01314175       0.00000000
Si       2.71720458       2.67556734      -0.10014565       0.00000000
Si       0.02899620       2.68359831      -2.78536312       0.00000000
