10
Lattice="16.28999089631971 0.0 0.0 0.0 16.28999089631971 0.0 0.0 0.0 34.40246978574605" Properties=species:S:1:pos:R:3:initial_magmoms:R:1 pbc="T T T"
Si       0.58122720       1.85435586      -1.31517275       0.00000000
Si       0.54128412      -1.99925541      -1.12282844       0.00000000
Si      -2.34740529       0.15934878       0.36091651       0.00000000
Si       1.21588560      -0.33783831       2.04701690       0.00000000
Si      -1.58488668      -3.01951440      -0.85731003       0.00000000
Si       2.84130247       1.44546057      -1.69452900       0.00000000
Si      -2.48085297      -0.02832831       2.65456486       0.00000000
Si      -0.46934748      -0.70970643       3.63510460       0.00000000
Si      -3.41591526      -1.61181405      -0.72510126       0.00000000
Si       2.06258671      -3.31001397       0.21315782       0.00000000
