10
Lattice="16.28999089631971 0.0 0.0 0.0 16.28999089631971 0.0 0.0 0.0 34.40246978574605" Properties=species:S:1:pos:R:3:initial_magmoms:R:1 pbc="T T T"
Si       0.37162377       2.19693456      -0.86143832       0.00000000
Si      -2.13205149      -0.71719983      -0.83914551       0.00000000
Si       1.74972519      -1.65700251      -0.21979750       0.00000000
Si      -1.72973736       0.09793548       1.73422947       0.00000000
Si      -3.21396813       1.40063049      -0.99519520       0.00000000
Si      -3.08125350      -1.85290605       1.02956329       0.00000000
Si      -1.63988172       2.87831268      -1.84197807       0.00000000
Si       1.49464008      -3.07664343       1.69201762       0.00000000
Si      -0.80371602       1.09514412       3.69021739       0.00000000
Si       3.87841998      -0.69144534      -0.55766435       0.00000000
