10
Lattice="16.28999089631971 0.0 0.0 0.0 16.28999089631971 0.0 0.0 0.0 34.40246978574605" Properties=species:S:1:pos:R:3:initial_magmoms:R:1 pbc="T T T"
Si       1.35149985      -1.34957763      -1.36041203       0.00000000
Si       1.36104579       1.35031624       1.35373794       0.00000000
Si      -1.35275418      -1.35783666       1.35710939       0.00000000
Si      -1.27216755       1.34548625      -1.49151303       0.00000000
Si       0.65280546       2.21917760      -2.65876747       0.00000000
Si      -0.33559029      -2.27320434      -2.77323422       0.00000000
Si       2.35576206       0.34919474      -2.70690622       0.00000000
Si      -2.24968158      -0.33888087      -2.91872234       0.00000000
Si      -2.69887833       2.71537100      -0.03112049       0.00000000
Si      -2.70736542      -0.00366120       2.71490682       0.00000000
