10
Lattice="16.28999089631971 0.0 0.0 0.0 16.28999089631971 0.0 0.0 0.0 34.40246978574605" Properties=species:S:1:pos:R:3:initial_magmoms:R:1 pbc="T T T"
Si      -1.36254447      -1.34011314      -1.39780753       0.00000000
Si       1.36519725       1.36530172      -1.39092703       0.00000000
Si      -1.27438299       1.46567436       1.49554500       0.00000000
Si       0.82873746      -1.85342733       1.40541048       0.00000000
Si       2.70330988      -2.69464293      -0.01833653       0.00000000
Si      -2.69972541       2.70554324      -0.03106545       0.00000000
Si      -2.70407484      -2.70334179      -0.01252251       0.00000000
Si       2.72753148       2.72483874      -0.00182333       0.00000000
Si       0.00581553      -2.70301599      -2.75188950       0.00000000
Si      -2.71107954       0.00887805      -2.75618981       0.00000000
