10
Lattice="16.28999089631971 0.0 0.0 0.0 16.28999089631971 0.0 0.0 0.0 34.40246978574605" Properties=species:S:1:pos:R:3:initial_magmoms:R:1 pbc="T T T"
Si       2.11179880       0.02003670      -0.98993162       0.00000000
Si       0.05064561      -2.32314948       0.31743177       0.00000000
Si      -0.52116597       1.08877473       2.03494163       0.00000000
Si       0.37002735       1.61222130      -2.09232498       0.00000000
Si      -1.95346422       1.20435228      -2.72928706       0.00000000
Si       3.03498080       1.88159274       0.01544672       0.00000000
Si      -2.75558382       0.38325483       2.50969598       0.00000000
Si      -2.14340562      -2.98699956       0.80794245       0.00000000
Si       0.25798473      -3.20738697      -2.23082940       0.00000000
Si      -0.74733633       3.46897572       1.76054738       0.00000000
