10
Lattice="16.28999089631971 0.0 0.0 0.0 16.28999089631971 0.0 0.0 0.0 34.40246978574605" Properties=species:S:1:pos:R:3:initial_magmoms:R:1 pbc="T T T"
Si      -1.68909381       1.17429953      -1.17340010       0.00000000
Si       1.82896368       1.42533169      -0.52219538       0.00000000
Si       0.30356415      -2.08806849      -1.10156770       0.00000000
Si      -0.33607899       0.31079691       2.36056119       0.00000000
Si       0.73526544       3.37097834       0.28571267       0.00000000
Si      -0.89344134      -1.64038671      -3.10847130       0.00000000
Si      -1.11961170       0.73981428      -3.38286555       0.00000000
Si       0.28209393       2.61329786       2.53009665       0.00000000
Si      -3.70283103       0.34731909      -0.35128382       0.00000000
Si       3.71075516       0.38167470       0.49481100       0.00000000
