10
Lattice="16.28999089631971 0.0 0.0 0.0 16.28999089631971 0.0 0.0 0.0 34.40246978574605" Properties=species:S:1:pos:R:3:initial_magmoms:R:1 pbc="T T T"
Si       1.74204771       0.52841502       1.37296893       0.00000000
Si       1.12862821      -0.90091845      -1.78975509       0.00000000
Si      -1.54813222       1.62810405      -0.50609502       0.00000000
Si      -0.23379897       1.27692423       2.71979683       0.00000000
Si      -3.11889547      -0.02580336      -1.19445442       0.00000000
Si      -1.26167257       2.94679584       1.44531737       0.00000000
Si       2.50619532      -1.45526715       2.39417242       0.00000000
Si      -3.29287267      -1.88460639       0.41310509       0.00000000
Si       1.04203058       0.49875093      -3.73862169       0.00000000
Si       0.09300124      -2.66287417      -2.87622009       0.00000000
