10
Lattice="16.28999089631971 0.0 0.0 0.0 16.28999089631971 0.0 0.0 0.0 34.40246978574605" Properties=species:S:1:pos:R:3:initial_magmoms:R:1 pbc="T T T"
Si      -1.35404109       1.35612621      -1.36082486       0.00000000
Si      -1.35566357      -1.34614044       1.37537711       0.00000000
Si       1.36186029      -1.36032903      -1.35793505       0.00000000
Si       1.34693865       1.37055915       1.36254498       0.00000000
Si       2.68820838      -0.00803097       2.68521747       0.00000000
Si      -2.70240169       2.70444951      -0.00344025       0.00000000
Si      -2.70994667      -0.00187335      -2.71617971       0.00000000
Si       0.00395847       2.71179630      -2.71583569       0.00000000
Si      -2.71185236      -2.71805166      -0.00261459       0.00000000
Si       2.72416041       2.70707220       0.00127289       0.00000000
