10
Lattice="16.28999089631971 0.0 0.0 0.0 16.28999089631971 0.0 0.0 0.0 34.40246978574605" Properties=species:S:1:pos:R:3:initial_magmoms:R:1 pbc="T T T"
Si       1.06645743       0.53212914      -2.03810666       0.00000000
Si       1.97084565      -0.55620576       1.18409927       0.00000000
Si      -1.77063245      -1.62732213       0.21759574       0.00000000
Si      -0.89988794       1.86369003       1.33020664       0.00000000
Si       0.58720237      -1.88020809       2.77166202       0.00000000
Si       0.92874177       2.95015158      -1.68716687       0.00000000
Si      -0.74275884      -3.29719374       1.49207521       0.00000000
Si      -2.27674646       0.70819146       2.82407766       0.00000000
Si      -3.58102160      -0.64347129       1.47029121       0.00000000
Si       3.79065042      -0.90339453      -0.67886432       0.00000000
