10
Lattice="16.28999089631971 0.0 0.0 0.0 16.28999089631971 0.0 0.0 0.0 34.383488856416385" Properties=species:S:1:pos:R:3:initial_magmoms:R:1 pbc="T T T"
Si       1.94833287      -1.35355239      -0.02534065       0.00000000
Si      -1.82859974      -0.79270398       1.34357138       0.00000000
Si       0.78907131       1.87475094       1.45455790       0.00000000
Si      -1.15556373      -0.57319623      -2.15973129       0.00000000
Si      -0.23257233      -1.87550028       2.73372755       0.00000000
Si       1.12717026      -3.19873698       1.26647667       0.00000000
Si       2.61351873       0.32052204      -2.68621157       0.00000000
Si       2.48570739       0.86073102       2.74019509       0.00000000
Si       0.66047805      -0.60776361      -3.72562502       0.00000000
Si       2.09598543       3.25060434       0.13064499       0.00000000
