10
Lattice="16.28999089631971 0.0 0.0 0.0 16.28999089631971 0.0 0.0 0.0 34.383488856416385" Properties=species:S:1:pos:R:3:initial_magmoms:R:1 pbc="T T T"
Si      -0.67465917       0.21462075      -2.31335681       0.00000000
Si      -0.52589889       1.28008449       2.01566439       0.00000000
Si       1.63810448      -1.78893522       0.40723827       0.00000000
Si       1.53959885       1.94800707      -0.32251731       0.00000000
Si      -2.43441900      -1.08551673       0.39489459       0.00000000
Si      -1.57618035       2.42750259      -1.81899073       0.00000000
Si      -0.02681513      -3.60033435      -0.30487857       0.00000000
Si      -0.06770824       3.67166730      -0.20636982       0.00000000
Si       1.23093593       0.20204487      -3.69584890       0.00000000
Si      -1.90885473      -3.26440197       1.01641088       0.00000000
