10
Lattice="16.28999089631971 0.0 0.0 0.0 16.28999089631971 0.0 0.0 0.0 34.383488856416385" Properties=species:S:1:pos:R:3:initial_magmoms:R:1 pbc="T T T"
Si       1.35555606      -1.35595756      -1.35477899       0.00000000
Si       1.35560493       1.35811024       1.35680761       0.00000000
Si      -1.35941679      -1.35652771       1.35708268       0.00000000
Si      -1.36010097       1.36030124      -1.36210267       0.00000000
Si       2.69895978      -0.01407600      -2.70467207       0.00000000
Si       2.71018359      -2.71444582       0.00048137       0.00000000
Si      -0.00899208      -2.70631711      -2.71844267       0.00000000
Si       2.71261080       0.00081099       2.71437166       0.00000000
Si      -0.00218286      -2.71438066       2.71430289       0.00000000
Si       2.71332756       2.71628899      -0.00061890       0.00000000
