10
Lattice="16.28999089631971 0.0 0.0 0.0 16.28999089631971 0.0 0.0 0.0 34.383488856416385" Properties=species:S:1:pos:R:3:initial_magmoms:R:1 pbc="T T T"
Si       1.35446463      -1.29735026      -1.54203157       0.00000000
Si       1.29974652       1.57889196       1.40037152       0.00000000
Si      -1.36304946       1.39225743      -1.54127513       0.00000000
Si      -1.08483255      -1.78473240       1.53828377       0.00000000
Si       0.96161499      -3.34665737       1.19613348       0.00000000
Si       2.88111456      -2.45651082      -0.10731093       0.00000000
Si      -2.75773410      -2.64081214      -0.08135138       0.00000000
Si      -2.62541043       2.81802339      -0.13378623       0.00000000
Si       2.76848550       2.71867068      -0.11862310       0.00000000
Si      -0.01347183      -2.67095194      -2.92311394       0.00000000
