10
Lattice="16.28999089631971 0.0 0.0 0.0 16.28999089631971 0.0 0.0 0.0 34.383488856416385" Properties=species:S:1:pos:R:3:initial_magmoms:R:1 pbc="T T T"
Si       0.98427438      -1.84230126      -1.06530423       0.00000000
Si      -1.34938215      -0.92799243       1.68506696       0.00000000
Si      -1.62860904       0.98782560      -1.40040590       0.00000000
Si       1.82433339       1.61059230       0.20248448       0.00000000
Si       1.68867027      -2.85252561       1.25513558       0.00000000
Si      -0.23684031       2.17199457      -2.82089177       0.00000000
Si       2.45301336      -0.70252254      -2.58429885       0.00000000
Si       1.06245009       3.32790039      -1.25812694       0.00000000
Si      -0.03406239      -2.31471126       3.09417189       0.00000000
Si       3.65945076       0.75667050      -1.18602473       0.00000000
