10
Lattice="16.28999089631971 0.0 0.0 0.0 16.28999089631971 0.0 0.0 0.0 34.383488856416385" Properties=species:S:1:pos:R:3:initial_magmoms:R:1 pbc="T T T"
Si      -0.98427438       1.84230126       1.06530423       0.00000000
Si       1.46873898       1.13977872      -1.51899462       0.00000000
Si      -1.29974652      -1.57889196      -1.40037152       0.00000000
Si       0.70439589      -1.01022435       2.32043981       0.00000000
Si      -2.33365653       0.91430883       2.75037119       0.00000000
Si       2.67517638       2.59897176      -0.12072050       0.00000000
Si       0.84005901       3.45289356       1.26778871       0.00000000
Si      -2.61288342       2.83012686      -0.33510167       0.00000000
Si       0.06480162       2.51714709      -2.96578387       0.00000000
Si      -2.66279598      -0.18663453      -2.94164665       0.00000000
