10
Lattice="16.28999089631971 0.0 0.0 0.0 16.28999089631971 0.0 0.0 0.0 34.383488856416385" Properties=species:S:1:pos:R:3:initial_magmoms:R:1 pbc="T T T"
Si       1.34938215       0.92799243      -1.68506696       0.00000000
Si       1.31531976      -1.38671883       1.40910493       0.00000000
Si      -1.57042116      -1.60337583      -0.91594227       0.00000000
Si      -1.23382089       1.44508590       1.90446813       0.00000000
Si       3.03805242      -1.92453318      -0.42993138       0.00000000
Si      -0.27922689       1.91581803      -3.08547286       0.00000000
Si      -2.58271434      -2.40225372       0.97955176       0.00000000
Si      -0.45900333      -2.99942883       2.05403639       0.00000000
Si       2.33365653      -0.91430883      -2.75037119       0.00000000
Si      -3.48223511       1.40006034       1.10587677       0.00000000
