10
Lattice="16.28999089631971 0.0 0.0 0.0 16.28999089631971 0.0 0.0 0.0 34.383488856416385" Properties=species:S:1:pos:R:3:initial_magmoms:R:1 pbc="T T T"
Si       2.25517131       0.11852604       0.51582139       0.00000000
Si      -0.99618237      -2.04885846       0.45991380       0.00000000
Si      -0.41906025       0.01536147      -2.29839998       0.00000000
Si      -2.66212809       0.55236132      -1.96264502       0.00000000
Si      -3.08231235      -1.45512054      -0.62450766       0.00000000
Si       2.02554747      -0.36712773       2.83873681       0.00000000
Si       0.19891719      -3.39833020      -1.08376817       0.00000000
Si      -1.69399710       1.51467678       2.82099492       0.00000000
Si       1.35708732       1.11122235      -3.36728010       0.00000000
Si      -0.41542758      -2.31616107      -3.05978838       0.00000000
