10
Lattice="16.28999089631971 0.0 0.0 0.0 16.28999089631971 0.0 0.0 0.0 34.383488856416385" Properties=species:S:1:pos:R:3:initial_magmoms:R:1 pbc="T T T"
Si      -0.40594680       0.78183855      -2.16210375       0.00000000
Si      -1.77614757      -1.09586088       1.06888012       0.00000000
Si       1.23413040      -1.89038934      -0.64187133       0.00000000
Si       1.42890993       1.55440809       1.10928074       0.00000000
Si      -1.98874836       2.81232189       0.66226075       0.00000000
Si      -2.08503855       2.40984486      -1.71594335       0.00000000
Si       3.45144375       1.24103736      -0.11150572       0.00000000
Si       2.88106569      -2.17750059       1.02352827       0.00000000
Si       0.21090663       3.59355771       1.19169801       0.00000000
Si      -1.35708732      -1.11122235       3.36728010       0.00000000
