10
Lattice="16.28999089631971 0.0 0.0 0.0 16.28999089631971 0.0 0.0 0.0 34.383488856416385" Properties=species:S:1:pos:R:3:initial_magmoms:R:1 pbc="T T T"
Si      -1.35628911      -1.35734796       1.35684200       0.00000000
Si      -1.35782037       1.35785295      -1.35756405       0.00000000
Si       1.35839052       1.35798327       1.35783912       0.00000000
Si       1.35799956      -1.35827649      -1.35797665       0.00000000
Si      -0.00109143       2.71322982      -2.71409659       0.00000000
Si       2.71362078       0.00084708      -2.71554070       0.00000000
Si       2.71467963      -2.71472850      -0.00020630       0.00000000
Si      -2.71459818       2.71498914       0.00034384       0.00000000
Si      -2.71601541      -0.00043983      -2.71361522       0.00000000
Si      -2.71516833      -2.71466334      -0.00065329       0.00000000
