10
Lattice="16.28999089631971 0.0 0.0 0.0 16.28999089631971 0.0 0.0 0.0 34.383488856416385" Properties=species:S:1:pos:R:3:initial_magmoms:R:1 pbc="T T T"
Si      -1.19944899       1.40137983       1.49637027       0.00000000
Si       1.98255816       1.29103137      -0.30749171       0.00000000
Si       0.20564496      -2.03844915       1.24788066       0.00000000
Si      -1.02817593       0.03518640      -2.19782822       0.00000000
Si       2.22698961       0.74223756      -2.59437322       0.00000000
Si       0.22999851       1.79900244      -3.20468049       0.00000000
Si      -1.59109317      -3.37017294       0.47119159       0.00000000
Si      -1.18956096       0.21010842       3.58472140       0.00000000
Si       1.38548079       3.56373072      -0.25780754       0.00000000
Si      -0.02896362       3.56573439       1.72141033       0.00000000
