10
Lattice="16.28999089631971 0.0 0.0 0.0 16.28999089631971 0.0 0.0 0.0 34.383488856416385" Properties=species:S:1:pos:R:3:initial_magmoms:R:1 pbc="T T T"
Si      -1.49149611       1.84608054      -0.04136336       0.00000000
Si       2.19965499       0.78123582       0.52943726       0.00000000
Si      -0.09629019      -0.40247703      -2.37820410       0.00000000
Si       1.98874836      -2.81232189      -0.66226075       0.00000000
Si      -3.42559966       0.62069787       0.55323064       0.00000000
Si      -2.89740456      -1.39795893       1.75073946       0.00000000
Si       3.41765829      -1.25791380       0.44701999       0.00000000
Si       1.58280156      -2.03048334      -2.82436450       0.00000000
Si       2.21868171       1.39444029       2.83729270       0.00000000
Si       0.00938304       1.10021031       3.71960790       0.00000000
