10
Lattice="16.28999089631971 0.0 0.0 0.0 16.28999089631971 0.0 0.0 0.0 34.383488856416385" Properties=species:S:1:pos:R:3:initial_magmoms:R:1 pbc="T T T"
Si      -0.65736666       2.18836602      -0.39994897       0.00000000
Si      -1.57494978      -1.43751105      -0.94743756       0.00000000
Si       0.36276201      -0.86082876       2.18146167       0.00000000
Si       1.58939901      -0.32337279      -1.90512142       0.00000000
Si       0.28126314       1.27065258       3.12518582       0.00000000
Si       0.63719964       3.03937191       1.45655417       0.00000000
Si       0.80024625      -2.52946233      -2.31545420       0.00000000
Si      -2.74302097       2.05068294       0.82778296       0.00000000
Si      -0.70035597      -3.57114267      -0.65858171       0.00000000
Si       3.79612386      -0.09045837      -0.90552407       0.00000000
