10
Lattice="16.28999089631971 0.0 0.0 0.0 16.28999089631971 0.0 0.0 0.0 34.383488856416385" Properties=species:S:1:pos:R:3:initial_magmoms:R:1 pbc="T T T"
Si       1.94382054       0.86207169       1.08079366       0.00000000
Si       0.21258450       0.08378273      -2.38734844       0.00000000
Si      -0.85921605      -1.96427982       1.15488668       0.00000000
Si      -1.95302439       1.49033138      -0.00501862       0.00000000
Si      -1.48928067      -1.59630501      -2.19483517       0.00000000
Si       0.51813603       2.09969140       2.52163800       0.00000000
Si      -2.21860026      -0.64917903       2.55756877       0.00000000
Si      -0.94936491       3.38585206       1.04420273       0.00000000
Si      -3.74541309       0.48848497       1.19277730       0.00000000
Si      -2.11295961      -3.42091533      -0.35394215       0.00000000
