10
Lattice="16.28999089631971 0.0 0.0 0.0 16.28999089631971 0.0 0.0 0.0 34.383488856416385" Properties=species:S:1:pos:R:3:initial_magmoms:R:1 pbc="T T T"
Si      -1.34548884       1.35035955       1.35718583       0.00000000
Si       1.37441988       1.34772057      -1.35251999       0.00000000
Si      -1.32133077      -1.36573731      -1.39304439       0.00000000
Si       1.36909305      -1.36464588       1.35312858       0.00000000
Si       2.36939679      -0.37791171      -2.57150131       0.00000000
Si       0.72751140      -2.23945146      -2.69944922       0.00000000
Si      -2.70462870       2.70891297      -0.00804574       0.00000000
Si      -2.70378162      -0.00654858       2.71265249       0.00000000
Si       0.00962739       2.70778896       2.71289317       0.00000000
Si      -2.69891091      -2.72759760      -0.00759876       0.00000000
