10
Lattice="16.28999089631971 0.0 0.0 0.0 16.28999089631971 0.0 0.0 0.0 34.383488856416385" Properties=species:S:1:pos:R:3:initial_magmoms:R:1 pbc="T T T"
Si      -0.73559124      -2.13379452       0.61061672       0.00000000
Si       2.04512805      -0.60937632      -1.00994678       0.00000000
Si      -0.40746177       1.59659919       1.76005739       0.00000000
Si      -1.59475842       0.26906193      -1.80558116       0.00000000
Si      -0.81244746      -2.85775470      -1.64064347       0.00000000
Si       1.27894419      -2.20566600      -2.56026478       0.00000000
Si      -2.55788838       2.28323898      -1.15267272       0.00000000
Si      -2.72122821       2.08606482       1.17980131       0.00000000
Si       0.65446704       3.51160272       0.82571995       0.00000000
Si      -2.75812506      -1.82042379       1.83140317       0.00000000
