10
Lattice="16.28999089631971 0.0 0.0 0.0 16.28999089631971 0.0 0.0 0.0 34.383488856416385" Properties=species:S:1:pos:R:3:initial_magmoms:R:1 pbc="T T T"
Si      -1.35546484      -1.35630699       1.35715145       0.00000000
Si       1.35700587      -1.35730068      -1.35694515       0.00000000
Si      -1.35804680       1.35728513      -1.35763282       0.00000000
Si       1.35847197       1.36143746       1.35807980       0.00000000
Si       0.00156384       2.71256752       2.71334016       0.00000000
Si      -0.00255753       2.71426168      -2.71474988       0.00000000
Si       2.71423980      -2.71515363       0.00027507       0.00000000
Si       2.71453302       2.71489699       0.00013753       0.00000000
Si       2.71642266      -0.00077298      -2.71402783       0.00000000
Si      -2.71552610      -2.71508847       0.00041260       0.00000000
