10
Lattice="16.28999089631971 0.0 0.0 0.0 16.28999089631971 0.0 0.0 0.0 34.383488856416385" Properties=species:S:1:pos:R:3:initial_magmoms:R:1 pbc="T T T"
Si      -1.10741049      -1.58640165      -1.36017720       0.00000000
Si       0.97581987       1.33628499      -1.72869964       0.00000000
Si       1.52314758      -1.41012756       1.23075767       0.00000000
Si      -1.60746462       1.22578992       1.45132788       0.00000000
Si       0.78104034      -0.65806713       3.37714816       0.00000000
Si      -0.07592769       1.59858657       3.16661794       0.00000000
Si      -0.92344752       1.49434686      -3.22785497       0.00000000
Si       0.87143355      -3.68859357       0.75719361       0.00000000
Si       0.07573221      -3.57135444      -1.48292632       0.00000000
Si      -2.85798276      -2.60266959      -0.23858716       0.00000000
