10
Lattice="16.28999089631971 0.0 0.0 0.0 16.28999089631971 0.0 0.0 0.0 34.383488856416385" Properties=species:S:1:pos:R:3:initial_magmoms:R:1 pbc="T T T"
Si       0.74210724      -0.75206043      -2.14639049       0.00000000
Si       1.26617283      -0.24869943       2.04605941       0.00000000
Si      -0.85696803       2.25665370      -0.21053022       0.00000000
Si      -1.94618259      -1.47706317       0.06766674       0.00000000
Si      -0.78104034       0.65806713      -3.37714816       0.00000000
Si      -2.38850496       1.88385705      -1.92582029       0.00000000
Si      -2.10952242      -1.67423733       2.40014078       0.00000000
Si      -0.98305263      -3.49124022      -0.58524169       0.00000000
Si       0.20424402      -2.16370296       2.98039686       0.00000000
Si       0.63736254       1.64683755       3.44371463       0.00000000
