10
Lattice="16.28999089631971 0.0 0.0 0.0 16.28999089631971 0.0 0.0 0.0 34.383488856416385" Properties=species:S:1:pos:R:3:initial_magmoms:R:1 pbc="T T T"
Si      -1.42568451       1.23761972       1.44084434       0.00000000
Si      -1.94382054      -0.86207169      -1.08079366       0.00000000
Si       1.27661472      -1.49568657       1.44144606       0.00000000
Si       1.54766403       1.21302182      -1.53963989       0.00000000
Si       2.68001451       2.62554401       0.01939574       0.00000000
Si      -0.08366544       2.58120263       2.81982588       0.00000000
Si      -2.89318545       2.52378038      -0.03659093       0.00000000
Si       2.64126060      -0.14068696       2.81955081       0.00000000
Si       3.45967020      -0.26744433      -1.82395712       0.00000000
Si      -1.73123604      -0.77828896      -3.46814209       0.00000000
