10
Lattice="16.28999089631971 0.0 0.0 0.0 16.28999089631971 0.0 0.0 0.0 34.383488856416385" Properties=species:S:1:pos:R:3:initial_magmoms:R:1 pbc="T T T"
Si       1.52239824      -1.21685486       1.24059135       0.00000000
Si       1.35900954       1.32734830      -1.35553542       0.00000000
Si      -1.35143469      -1.39023796      -1.35089365       0.00000000
Si      -1.31012325       1.41247984       1.42870353       0.00000000
Si      -0.32943267      -2.00710786       2.47148656       0.00000000
Si      -1.97350092      -0.28582108       2.97321071       0.00000000
Si       0.00588069       2.68637413      -2.71227427       0.00000000
Si      -2.71624347       2.68655332       0.00089397       0.00000000
Si      -2.71026504      -0.02721896      -2.71079578       0.00000000
Si       2.71349046       2.71152589       0.03297378       0.00000000
