10
Lattice="16.28999089631971 0.0 0.0 0.0 16.28999089631971 0.0 0.0 0.0 34.383488856416385" Properties=species:S:1:pos:R:3:initial_magmoms:R:1 pbc="T T T"
Si      -1.35648133      -1.35788553       1.35646378       0.00000000
Si      -1.35402154       1.36057338      -1.35660131       0.00000000
Si       1.35819504       1.35829278       1.35605117       0.00000000
Si       1.35638685      -1.35627282      -1.36351240       0.00000000
Si      -2.72070059       0.00723276      -2.69384471       0.00000000
Si      -2.71350107      -2.71321353       0.00226931       0.00000000
Si       0.00084708      -2.71422351       2.71296194       0.00000000
Si      -2.71433962       0.00052128       2.71344331       0.00000000
Si      -0.00922014       2.70220149      -2.72587294       0.00000000
Si      -2.71455430       2.71378368      -0.00168479       0.00000000
