10
Lattice="16.28999089631971 0.0 0.0 0.0 16.28999089631971 0.0 0.0 0.0 34.383488856416385" Properties=species:S:1:pos:R:3:initial_magmoms:R:1 pbc="T T T"
Si       0.69571332      -0.13065069      -2.25218855       0.00000000
Si      -1.48344885       1.79837365       0.38681447       0.00000000
Si      -1.38707721      -1.99590034      -0.42291715       0.00000000
Si       1.78238079      -0.22389302       1.70122721       0.00000000
Si       0.31379427      -0.58706717       3.47441911       0.00000000
Si       0.59924394      -3.47614006      -0.71256382       0.00000000
Si       2.18302194      -2.02756810      -2.07167513       0.00000000
Si      -1.05238287      -1.08301622      -3.45334202       0.00000000
Si      -3.69734130       0.91508098       0.67783648       0.00000000
Si      -0.59148990       3.13242691       2.22165599       0.00000000
