10
Lattice="16.28999089631971 0.0 0.0 0.0 16.28999089631971 0.0 0.0 0.0 34.383488856416385" Properties=species:S:1:pos:R:3:initial_magmoms:R:1 pbc="T T T"
Si       1.21026555      -1.92179646      -0.26485616       0.00000000
Si      -1.97509734      -1.16295939      -0.38763967       0.00000000
Si       0.26484282       0.68367501       2.23630336       0.00000000
Si       0.60532011       1.35607734      -1.85987272       0.00000000
Si       3.35308473       0.94428243       0.45221190       0.00000000
Si       2.18035134       1.97501589       2.15646486       0.00000000
Si      -2.53330677      -2.04928200       1.64287840       0.00000000
Si      -3.50560800       0.45957348      -0.95228564       0.00000000
Si       3.20652360      -1.37246508      -1.29412648       0.00000000
Si      -1.72436166       1.72439424       2.83639873       0.00000000
