10
Lattice="16.28999089631971 0.0 0.0 0.0 16.28999089631971 0.0 0.0 0.0 34.383488856416385" Properties=species:S:1:pos:R:3:initial_magmoms:R:1 pbc="T T T"
Si       0.15467355      -2.30095503      -0.00453862       0.00000000
Si       0.61286419       0.09062779      -2.22657283       0.00000000
Si      -1.91200617       1.48046615       0.28431723       0.00000000
Si       1.92510563       0.30482825       1.60105571       0.00000000
Si      -0.77965569       2.89298834       1.84335286       0.00000000
Si      -0.94022622      -2.80394136       1.96648364       0.00000000
Si       2.22017129      -1.63303245      -2.34272032       0.00000000
Si       0.55054624       1.48963742       3.26007373       0.00000000
Si       3.25018799       1.92775697       0.29112516       0.00000000
Si       1.10198659       2.38079816      -2.89622604       0.00000000
