10
Lattice="16.28999089631971 0.0 0.0 0.0 16.28999089631971 0.0 0.0 0.0 34.383488856416385" Properties=species:S:1:pos:R:3:initial_magmoms:R:1 pbc="T T T"
Si       1.34817017       1.35496962      -1.38369552       0.00000000
Si      -1.36772210      -1.35993807      -1.38448634       0.00000000
Si       1.45394114      -1.30381902       1.40762644       0.00000000
Si      -1.25113895       1.48784715       1.44273200       0.00000000
Si       2.76621467       0.28717641       2.60668251       0.00000000
Si      -2.70674381       2.70065394      -0.02620023       0.00000000
Si      -2.72611262      -2.69335602       0.00103151       0.00000000
Si       2.68826702       2.73321765      -0.03820008       0.00000000
Si       2.71630211      -2.72958498       0.00013753       0.00000000
Si       2.71043771      -0.00355122      -2.74407901       0.00000000
