10
Lattice="16.28999089631971 0.0 0.0 0.0 16.28999089631971 0.0 0.0 0.0 34.383488856416385" Properties=species:S:1:pos:R:3:initial_magmoms:R:1 pbc="T T T"
Si       1.35412254       1.34513046       1.37848298       0.00000000
Si      -0.65327787       1.83739797      -1.32639884       0.00000000
Si      -1.37795481      -1.35513252       1.36703327       0.00000000
Si       1.38572514      -1.31079114      -1.43339688       0.00000000
Si       0.33264180       1.38062637      -3.44375043       0.00000000
Si       2.49688233       0.29986632      -2.84489287       0.00000000
Si      -2.70212004       2.71111212      -0.01999401       0.00000000
Si       2.69556869       2.71896390       0.03577260       0.00000000
Si      -2.71997388      -2.69871543      -0.01194827       0.00000000
Si       2.71592707      -2.71414206      -0.01667600       0.00000000
