10
Lattice="16.28999089631971 0.0 0.0 0.0 16.28999089631971 0.0 0.0 0.0 34.383488856416385" Properties=species:S:1:pos:R:3:initial_magmoms:R:1 pbc="T T T"
Si       1.29710316       1.16859573      -1.55712593       0.00000000
Si      -1.30407966       1.40423058       1.42492134       0.00000000
Si       1.98590480      -0.84807369       1.25575448       0.00000000
Si      -1.47395178      -1.52647074      -1.44225063       0.00000000
Si       3.48943922       0.95591349       0.74082706       0.00000000
Si      -2.69646741       2.53016280      -0.25234057       0.00000000
Si       2.29597354       2.93410593      -0.19674243       0.00000000
Si      -0.15850170       2.38140252      -3.02605816       0.00000000
Si      -1.35755973      -0.41778963       3.60631424       0.00000000
Si       2.73348222      -2.82141171      -0.04648650       0.00000000
