10
Lattice="16.28999089631971 0.0 0.0 0.0 16.28999089631971 0.0 0.0 0.0 34.383488856416385" Properties=species:S:1:pos:R:3:initial_magmoms:R:1 pbc="T T T"
Si       0.47594493      -1.04969502       2.01783055       0.00000000
Si       0.85900462      -1.71462024      -1.33975339       0.00000000
Si      -2.27181969      -0.63790011      -0.29425406       0.00000000
Si       1.17023029       2.07391248       0.35325616       0.00000000
Si       0.32938380      -3.36644253       0.27149218       0.00000000
Si       2.66330816      -0.38055069       2.26243483       0.00000000
Si       0.19209168       3.32387676      -1.38108237       0.00000000
Si       3.37307975       1.20270699       0.61900630       0.00000000
Si       3.03859718      -2.09794023      -0.64740707       0.00000000
Si      -0.69678846      -0.01896156       3.72208352       0.00000000
