10
Lattice="16.28999089631971 0.0 0.0 0.0 16.28999089631971 0.0 0.0 0.0 34.383488856416385" Properties=species:S:1:pos:R:3:initial_magmoms:R:1 pbc="T T T"
Si       1.17273339      -1.03073346      -1.70425296       0.00000000
Si      -1.91550852      -1.29134088       0.07983851       0.00000000
Si      -0.64632204       2.16469665      -0.63733271       0.00000000
Si       0.78613911       0.68867604       2.15433308       0.00000000
Si      -0.62832159       2.57253309       1.71353651       0.00000000
Si      -1.02086172      -2.69192250       1.76738108       0.00000000
Si      -0.06097347      -1.23010677       3.37790460       0.00000000
Si      -2.18035134      -1.97501589      -2.15646486       0.00000000
Si       3.36009662      -0.36158913      -1.45964868       0.00000000
Si       1.25801154       3.27347550      -1.34243531       0.00000000
