10
Lattice="16.28999089631971 0.0 0.0 0.0 16.28999089631971 0.0 0.0 0.0 34.383488856416385" Properties=species:S:1:pos:R:3:initial_magmoms:R:1 pbc="T T T"
Si       1.35651937       1.35581670      -1.35777035       0.00000000
Si       1.35673404      -1.35744570       1.35735775       0.00000000
Si      -1.35759231       1.35726651       1.35725460       0.00000000
Si      -1.35689184      -1.35749457      -1.35952391       0.00000000
Si       0.00045612      -2.71321353       2.71375276       0.00000000
Si      -2.71428867       0.00029322       2.71419974       0.00000000
Si       2.71425676       2.71467963       0.00027507       0.00000000
Si       0.00301365       2.71494027      -2.71402783       0.00000000
Si       2.71705212       0.00260640      -2.71268687       0.00000000
Si       2.71529606       0.00135207       2.71468111       0.00000000
