10
Lattice="16.28999089631971 0.0 0.0 0.0 16.28999089631971 0.0 0.0 0.0 34.383488856416385" Properties=species:S:1:pos:R:3:initial_magmoms:R:1 pbc="T T T"
Si      -1.72403586       0.25006779      -1.56211154       0.00000000
Si      -0.05294250       1.58475636       1.79224036       0.00000000
Si       1.86437421      -0.34867116      -1.49131590       0.00000000
Si      -1.28700774      -1.70510688       1.18097035       0.00000000
Si       2.34103590      -2.24468055      -0.17652493       0.00000000
Si       2.62733265      -1.00292643       1.92038769       0.00000000
Si       0.90779283       0.05206284       3.29957897       0.00000000
Si      -2.93417109      -0.09760968       1.85069232       0.00000000
Si      -3.72987243       0.01962945      -0.38942761       0.00000000
Si      -1.69451838      -3.33850518      -0.46146106       0.00000000
