10
Lattice="16.28999089631971 0.0 0.0 0.0 16.28999089631971 0.0 0.0 0.0 34.383488856416385" Properties=species:S:1:pos:R:3:initial_magmoms:R:1 pbc="T T T"
Si       1.94952204       0.03057633      -1.31455028       0.00000000
Si      -1.22272740       2.01520332      -0.30212789       0.00000000
Si      -1.43257518      -1.92257838      -0.15654811       0.00000000
Si       0.60320241       0.44730711       2.47715984       0.00000000
Si       0.32026140       3.80643543       0.19055340       0.00000000
Si      -1.32686937      -2.79257841      -2.34815292       0.00000000
Si      -3.21763338       1.85557761       1.14397370       0.00000000
Si       3.36398274      -1.85328072      -0.87375371       0.00000000
Si      -3.73980933      -1.37490858      -0.25368152       0.00000000
Si       3.44046429       1.82874798      -0.87512905       0.00000000
