10
Lattice="16.28999089631971 0.0 0.0 0.0 16.28999089631971 0.0 0.0 0.0 34.383488856416385" Properties=species:S:1:pos:R:3:initial_magmoms:R:1 pbc="T T T"
Si      -1.26397368       1.98189027      -0.12257721       0.00000000
Si       1.83896181       0.03432303      -1.47635907       0.00000000
Si      -1.54298880      -1.79123211      -0.49268129       0.00000000
Si       1.36287027       0.56174436       1.96546447       0.00000000
Si      -3.22885719       1.09064808       0.92818280       0.00000000
Si       1.88843454      -1.61714088       2.58698076       0.00000000
Si       3.12263010       1.86188184      -0.74278692       0.00000000
Si      -2.30119056      -1.23341364      -2.79115003       0.00000000
Si      -0.32026140      -3.80643543      -0.19055340       0.00000000
Si       3.12020289      -1.97768745      -1.06568245       0.00000000
