10
Lattice="16.28999089631971 0.0 0.0 0.0 16.28999089631971 0.0 0.0 0.0 34.383488856416385" Properties=species:S:1:pos:R:3:initial_magmoms:R:1 pbc="T T T"
Si      -0.32612580       1.85613866      -1.42949435       0.00000000
Si      -1.16390421      -1.94168655      -0.87722644       0.00000000
Si      -1.97411994       0.79387916       1.19193869       0.00000000
Si       2.32117839       0.15118686      -1.00307008       0.00000000
Si      -2.01181500       2.95602317      -0.20011202       0.00000000
Si      -0.68949054       0.71457292      -3.47885458       0.00000000
Si      -1.76800257      -1.34644995      -3.08248150       0.00000000
Si       1.46293974      -3.36183246       1.21081524       0.00000000
Si       0.10006947      -3.92357682      -0.75464924       0.00000000
Si      -3.67598511      -0.88620858       1.38445195       0.00000000
