10
Lattice="16.28999089631971 0.0 0.0 0.0 16.28999089631971 0.0 0.0 0.0 34.383488856416385" Properties=species:S:1:pos:R:3:initial_magmoms:R:1 pbc="T T T"
Si      -0.97813861       1.24996428      -1.73433853       0.00000000
Si       2.20284946      -0.87120549       0.26575013       0.00000000
Si      -1.17023029      -2.07391248      -0.35325616       0.00000000
Si      -0.60900721       1.18060146       2.02639205       0.00000000
Si       1.49307787      -2.45446317       1.90917867       0.00000000
Si      -2.69767843       2.30495355      -0.35514725       0.00000000
Si      -0.69428536      -3.12360750       1.66457439       0.00000000
Si      -2.51334079       0.07182261       2.73149465       0.00000000
Si      -1.48224895       3.30615324       1.39125989       0.00000000
Si       0.47178935       2.99345040      -2.47537190       0.00000000
