10
Lattice="16.28999089631971 0.0 0.0 0.0 16.28999089631971 0.0 0.0 0.0 34.383488856416385" Properties=species:S:1:pos:R:3:initial_magmoms:R:1 pbc="T T T"
Si       1.59602741      -1.08279630       1.39015618       0.00000000
Si       1.82859974       0.79270398      -1.34357138       0.00000000
Si      -1.09531584       1.61727120       1.40403680       0.00000000
Si      -1.29288096      -1.68886575      -1.24648606       0.00000000
Si       0.67303601       0.21950775      -3.50330267       0.00000000
Si       0.25122601      -2.42442441       2.75942781       0.00000000
Si      -2.46281247       0.28790946       2.75808685       0.00000000
Si       2.61767105       2.66745492       0.11098653       0.00000000
Si      -2.58586713       2.78554113       0.07614572       0.00000000
Si       2.95577000      -2.40603300      -0.07709470       0.00000000
