10
Lattice="16.28999089631971 0.0 0.0 0.0 16.28999089631971 0.0 0.0 0.0 34.383488856416385" Properties=species:S:1:pos:R:3:initial_magmoms:R:1 pbc="T T T"
Si      -1.34143799      -1.36464588       1.35677323       0.00000000
Si       1.36023963      -1.35262386      -1.36079610       0.00000000
Si      -1.35530078       1.36228383      -1.36103678       0.00000000
Si       1.39759586       1.35545832       1.36457828       0.00000000
Si      -2.59156517       0.07472223       2.69834895       0.00000000
Si       0.11416687      -2.57745267       2.82570546       0.00000000
Si      -2.71071023      -2.71239903      -0.00220054       0.00000000
Si       2.71347599      -2.71033020      -0.00072205       0.00000000
Si       0.00167761      -2.71142163      -2.71811946       0.00000000
Si      -2.71264874       0.00329058      -2.71822261       0.00000000
