10
Lattice="16.28999089631971 0.0 0.0 0.0 16.28999089631971 0.0 0.0 0.0 34.383488856416385" Properties=species:S:1:pos:R:3:initial_magmoms:R:1 pbc="T T T"
Si      -1.90375854      -0.85243941       1.17209941       0.00000000
Si       1.03677705      -1.37257911      -1.66921617       0.00000000
Si      -1.61919994       1.31496138      -1.64941127       0.00000000
Si       1.91764251      -0.23244201       1.84629123       0.00000000
Si      -0.45755352       0.85950927       3.21430787       0.00000000
Si      -0.71029287      -2.83063185       2.10966890       0.00000000
Si       2.50649343      -2.63445138      -0.44481944       0.00000000
Si       0.41704029      -1.27412235       3.50316372       0.00000000
Si       2.40844392      -0.03450222      -3.01495229       0.00000000
Si      -2.90262893      -2.61794961      -0.18828409       0.00000000
