10
Lattice="16.28999089631971 0.0 0.0 0.0 16.28999089631971 0.0 0.0 0.0 34.383488856416385" Properties=species:S:1:pos:R:3:initial_magmoms:R:1 pbc="T T T"
Si       1.90375854       0.85243941      -1.17209941       0.00000000
Si      -0.99887038      -1.76551020      -1.36038350       0.00000000
Si       1.19346567      -1.97819244       0.93756950       0.00000000
Si      -1.89406666       1.80807597      -0.14217581       0.00000000
Si       1.44620502       1.71194868       2.04220846       0.00000000
Si       2.32079883      -0.42168294       2.33106431       0.00000000
Si       0.28455861       2.16740079      -2.82151067       0.00000000
Si      -2.29597354      -2.93410593       0.19674243       0.00000000
Si      -2.45447524      -0.55270341      -2.82931573       0.00000000
Si       3.82140105       0.61999740       0.67419183       0.00000000
