10
Lattice="16.28999089631971 0.0 0.0 0.0 16.28999089631971 0.0 0.0 0.0 34.383488856416385" Properties=species:S:1:pos:R:3:initial_magmoms:R:1 pbc="T T T"
Si       0.87459381      -2.13363162       0.28885585       0.00000000
Si       1.57494978       1.43751105       0.94743756       0.00000000
Si      -2.15818554      -0.16832457       1.82132881       0.00000000
Si       2.37519603      -1.09195128      -1.36801664       0.00000000
Si      -1.44620502      -1.71194868      -2.04220846       0.00000000
Si       0.45755352      -0.85950927      -3.21430787       0.00000000
Si       3.16434879       1.11413826      -0.95768385       0.00000000
Si       1.93771179       0.57668229       3.12889923       0.00000000
Si       0.91758312       3.62587707       0.54748860       0.00000000
Si      -2.93228864       1.97972370       1.36224021       0.00000000
