10
Lattice="16.28999089631971 0.0 0.0 0.0 16.28999089631971 0.0 0.0 0.0 34.383488856416385" Properties=species:S:1:pos:R:3:initial_magmoms:R:1 pbc="T T T"
Si      -1.35601122       1.34697123       1.35921446       0.00000000
Si       1.33642346       1.35612621      -1.38776308       0.00000000
Si       1.36133087      -1.36599795       1.35773597       0.00000000
Si      -1.34082894      -1.39387014      -1.35071485       0.00000000
Si       2.37215795      -0.34368642      -2.64376513       0.00000000
Si      -2.70956361       2.70509852      -0.00158164       0.00000000
Si       0.00331664       2.70666888       2.71670974       0.00000000
Si       2.71768513       2.70891201      -0.00178794       0.00000000
Si      -2.71166502      -0.00770517       2.71743179       0.00000000
Si      -2.70832557      -2.72323188       0.00333520       0.00000000
