10
Lattice="16.28999089631971 0.0 0.0 0.0 16.28999089631971 0.0 0.0 0.0 34.383488856416385" Properties=species:S:1:pos:R:3:initial_magmoms:R:1 pbc="T T T"
Si       1.27789511      -1.36725228      -1.38039470       0.00000000
Si      -0.90073016      -1.72657710       1.29894017       0.00000000
Si       0.56380504       1.93569183       1.22831644       0.00000000
Si      -1.46737781       1.32797709      -1.38785592       0.00000000
Si      -1.01997296       0.48711987       2.58742775       0.00000000
Si       2.56722255       2.73932593       0.09806177       0.00000000
Si       2.59848306      -0.00649971      -2.74658901       0.00000000
Si      -2.71126592      -2.64798837      -0.04662404       0.00000000
Si      -0.11784905       2.71027964      -2.74483545       0.00000000
Si      -0.11970074      -2.72271060      -2.74497298       0.00000000
