10
Lattice="16.28999089631971 0.0 0.0 0.0 16.28999089631971 0.0 0.0 0.0 34.383488856416385" Properties=species:S:1:pos:R:3:initial_magmoms:R:1 pbc="T T T"
Si       0.03735297       1.70906195       1.55891387       0.00000000
Si       2.33448732      -0.21665700       0.04665842       0.00000000
Si      -1.44231334      -1.58330655       1.03370579       0.00000000
Si      -0.68979679       0.56337336      -2.25074444       0.00000000
Si      -2.25828989       2.10093337       1.42701874       0.00000000
Si       2.41598619      -2.34813834      -0.89706573       0.00000000
Si       2.69042382       1.55206233      -1.62197323       0.00000000
Si      -2.45401424      -0.94509693      -2.66372475       0.00000000
Si       1.39585752       0.70105644      -3.47847636       0.00000000
Si      -1.13616560      -3.65265783       0.03768432       0.00000000
