10
Lattice="16.290000149 0.0 0.0 0.0 16.290000149 0.0 0.0 0.0 29.1751946751" Properties=species:S:1:pos:R:3:initial_magmoms:R:1 pbc="T T T"
Si      -1.33791400       1.15424425       1.55688758       0.00000000
Si      -1.30811959      -1.44647056      -1.37079652       0.00000000
Si       1.42749271      -1.36692649       1.33444131       0.00000000
Si       0.83427607       1.99746353      -1.09060758       0.00000000
H        1.91210393       0.28227312      -1.88066222       0.00000000
Si      -0.91149067       3.53989848      -0.63896302       0.00000000
Si      -2.74426230       2.51788016       0.30244757       0.00000000
Si      -2.70785414      -0.02269197      -2.59510439       0.00000000
Si       0.08421930       2.61408890       2.78191316       0.00000000
Si      -2.63471204      -2.82872595       0.00561914       0.00000000
