10
Lattice="16.290000149 0.0 0.0 0.0 16.290000149 0.0 0.0 0.0 29.1751946751" Properties=species:S:1:pos:R:3:initial_magmoms:R:1 pbc="T T T"
Si      -1.25763688      -1.36886500       1.42620605       0.00000000
Si      -1.45197658       1.41574762      -1.21885211       0.00000000
Si       0.95946472      -1.26946342      -1.75284570       0.00000000
Si       1.38906460       1.37837836       1.34158048       0.00000000
Si       2.35072847       0.16529463      -2.93166944       0.00000000
Si      -2.68509701       0.00651600       2.71938489       0.00000000
Si      -2.06729876      -3.22822191       0.24574033       0.00000000
Si       2.73742050       0.01591533       2.71838709       0.00000000
Si       0.02564046       2.72600120       2.73230366       0.00000000
Si      -0.18801918       2.89898472      -2.54556491       0.00000000
