10
Lattice="16.290000149 0.0 0.0 0.0 16.290000149 0.0 0.0 0.0 29.1751946751" Properties=species:S:1:pos:R:3:initial_magmoms:R:1 pbc="T T T"
Si       0.34896438      -0.88277140      -2.13568260       0.00000000
Si      -1.82019575       1.46064286       0.16624026       0.00000000
Si       1.62131113       1.68621050       0.06905769       0.00000000
Si       0.22934691      -1.51084864       1.83821232       0.00000000
H       -0.90604981      -1.46074060       2.84005933       0.00000000
Si       1.05948532       2.72122823       2.07908272       0.00000000
Si       2.29197044      -0.81976168       2.73850047       0.00000000
Si       1.40494735       0.87918760      -3.31850334       0.00000000
Si      -3.64666314       0.16345386       0.80188023       0.00000000
H       -1.82483840       0.31245849       3.28883217       0.00000000
