10
Lattice="16.290000149 0.0 0.0 0.0 16.290000149 0.0 0.0 0.0 29.1751946751" Properties=species:S:1:pos:R:3:initial_magmoms:R:1 pbc="T T T"
Si      -1.37252699       1.33929865      -1.35591717       0.00000000
Si      -1.33016811      -1.39572721       1.34135875       0.00000000
Si       1.29816640      -1.36207207      -1.41345066       0.00000000
Si       1.35537688       1.37800369       1.35425419       0.00000000
Si       2.77303044       0.00604359       2.60867086       0.00000000
Si      -0.01200573       2.68990256      -2.70777899       0.00000000
Si      -2.73694809      -0.08509896       2.66235321       0.00000000
Si       2.60700275      -2.78922270      -0.11410419       0.00000000
Si      -2.71247366       2.69825933       0.01782604       0.00000000
Si      -2.72073953      -0.04007340      -2.70512405       0.00000000
