10
Lattice="16.290000149 0.0 0.0 0.0 16.290000149 0.0 0.0 0.0 29.1751946751" Properties=species:S:1:pos:R:3:initial_magmoms:R:1 pbc="T T T"
Si       1.39683493       1.37368684       1.30984954       0.00000000
Si      -1.40908501      -1.28321218       1.38628855       0.00000000
Si       1.32696712      -1.39351014      -1.36213149       0.00000000
Si      -1.34363179       1.33460713      -1.40738222       0.00000000
Si      -2.63839358      -2.71603172      -0.04090362       0.00000000
Si       0.00892692       2.72575685       2.62894762       0.00000000
Si       2.58756878      -2.78681178       0.06710295       0.00000000
Si       2.69436602      -0.03416013      -2.73847130       0.00000000
Si      -2.71002071       2.72321561      -0.09665742       0.00000000
Si       0.01093059       2.68232771      -2.77928740       0.00000000
