10
Lattice="16.290000149 0.0 0.0 0.0 16.290000149 0.0 0.0 0.0 29.1751946751" Properties=species:S:1:pos:R:3:initial_magmoms:R:1 pbc="T T T"
H       -0.17819631       1.38800249       0.60979074       0.00000000
Si       0.83421091      -1.24424976       1.71314117       0.00000000
Si       1.89617231       0.01520672      -1.33733257       0.00000000
Si      -1.90022852      -0.54816502      -1.28621763       0.00000000
Si       0.64210294       1.12127003      -2.93960509       0.00000000
Si      -2.62793540       1.64243601      -0.88231624       0.00000000
Si      -0.68916475       2.67026986      -1.78435491       0.00000000
Si       1.87346405       0.60990412       2.66505484       0.00000000
Si       2.32992614      -2.27426647      -1.03685724       0.00000000
Si      -0.99856072      -2.26626808       2.65455177       0.00000000
