10
Lattice="16.290000149 0.0 0.0 0.0 16.290000149 0.0 0.0 0.0 29.1751946751" Properties=species:S:1:pos:R:3:initial_magmoms:R:1 pbc="T T T"
Si       1.34384356       1.37751499      -1.31381737       0.00000000
Si      -1.36498798       1.36963063       1.34421792       0.00000000
Si       1.54484587      -1.32507748       1.18489218       0.00000000
Si      -1.40820535      -1.32582682      -1.35641315       0.00000000
Si       2.57315213       2.81033454       0.11337481       0.00000000
Si       2.62793540      -2.74530486      -0.31299149       0.00000000
Si      -0.05727564       2.71845893      -2.67393577       0.00000000
Si       2.64800468       0.03147228      -2.74576510       0.00000000
Si      -2.70897815       0.07257195       2.71113414       0.00000000
Si      -2.78400990      -2.64694583       0.00577669       0.00000000
