10
Lattice="16.290000149 0.0 0.0 0.0 16.290000149 0.0 0.0 0.0 29.1751946751" Properties=species:S:1:pos:R:3:initial_magmoms:R:1 pbc="T T T"
Si       1.38266100      -1.44828690       1.16134780       0.00000000
Si      -1.23256258      -1.35474841      -1.44507657       0.00000000
Si       1.40556474       1.29965694      -1.38299175       0.00000000
Si      -1.26143408       1.27004172       1.57338907       0.00000000
H        1.60101217       1.53167541       2.10280216       0.00000000
Si       2.22332275       0.22633489       2.54506893       0.00000000
Si      -2.52555438       2.64802912       0.08840084       0.00000000
Si      -2.54234937      -2.68517032      -0.07019552       0.00000000
Si       0.06656094       2.64455935      -2.75892311       0.00000000
Si      -2.69927094      -0.05520681      -2.71311805       0.00000000
