10
Lattice="16.290000149 0.0 0.0 0.0 16.290000149 0.0 0.0 0.0 29.1751946751" Properties=species:S:1:pos:R:3:initial_magmoms:R:1 pbc="T T T"
Si      -1.36881613      -1.34882830      -1.33777020       0.00000000
Si      -1.36506943       1.34736220       1.35019883       0.00000000
Si       1.32497974      -1.38349342       1.36020593       0.00000000
Si       1.38500008       1.33164235      -1.36787900       0.00000000
Si       0.07394031      -2.68048694      -2.62051599       0.00000000
Si       2.69507138      -0.01430262       2.68534327       0.00000000
Si      -0.00645084       2.71243163       2.68187142       0.00000000
Si      -2.69469182       2.71396289      -0.02561582       0.00000000
Si       0.05517423       2.74054817      -2.67898308       0.00000000
Si      -2.72080469      -0.03046230       2.70582425       0.00000000
