10
Lattice="16.290000149 0.0 0.0 0.0 16.290000149 0.0 0.0 0.0 29.1751946751" Properties=species:S:1:pos:R:3:initial_magmoms:R:1 pbc="T T T"
Si       0.61429591       0.51570882      -2.18183776       0.00000000
Si      -2.29718324      -0.05874174       0.45950932       0.00000000
Si       0.76574404       2.04755528       0.87992387       0.00000000
Si       1.21640689      -1.87153531       0.95210330       0.00000000
Si       1.69228667       1.00478350       2.71478104       0.00000000
Si       3.02355435      -0.54421633       1.55953086       0.00000000
Si       1.29243232      -1.53480146      -2.95075001       0.00000000
Si      -0.24648399      -0.02305035       3.61681971       0.00000000
Si      -2.45013005       0.35904789       2.81528959       0.00000000
Si      -3.15874506       2.01717443      -0.33256804       0.00000000
