10
Lattice="16.290000149 0.0 0.0 0.0 16.290000149 0.0 0.0 0.0 29.1751946751" Properties=species:S:1:pos:R:3:initial_magmoms:R:1 pbc="T T T"
H       -0.90968248      -0.07408692       1.21532191       0.00000000
Si      -0.89313184       1.42089526      -1.59080666       0.00000000
Si       0.33935328      -2.12009465      -0.93138891       0.00000000
Si       1.88763635       1.33962445       0.38875947       0.00000000
H        0.99049717       0.35031645       2.45625964       0.00000000
H       -2.18237132      -1.83143585       0.78971417       0.00000000
Si       0.27548019       2.86878957       1.46748312       0.00000000
Si      -0.33130602       0.38587752      -3.60083170       0.00000000
Si      -1.72327025      -2.81118162      -1.83167707       0.00000000
Si       1.56618577      -3.44416215       0.58131575       0.00000000
