10
Lattice="16.290000149 0.0 0.0 0.0 16.290000149 0.0 0.0 0.0 29.1751946751" Properties=species:S:1:pos:R:3:initial_magmoms:R:1 pbc="T T T"
Si      -0.83421091       1.24424976      -1.71314117       0.00000000
Si      -1.83277163      -1.02201832       0.94141059       0.00000000
Si       1.03925314       1.85415388       0.95191366       0.00000000
Si       1.74576674      -1.54243495      -0.45164456       0.00000000
H       -1.01240722       2.63225225      -1.10335043       0.00000000
Si      -0.42642333      -2.38565423       2.19585060       0.00000000
Si       1.49571523      -1.03001671      -2.74999842       0.00000000
Si       2.45609219       0.51116049       2.20637701       0.00000000
Si       1.06196140       1.25945647      -3.05047375       0.00000000
Si       0.99570997      -0.92580958       3.42087618       0.00000000
