10
Lattice="16.290000149 0.0 0.0 0.0 16.290000149 0.0 0.0 0.0 29.1751946751" Properties=species:S:1:pos:R:3:initial_magmoms:R:1 pbc="T T T"
Si      -1.34675621      -1.34755768       1.36869591       0.00000000
Si       1.35169534      -1.36936999      -1.35883469       0.00000000
Si      -1.36576013       1.34807896      -1.37184683       0.00000000
Si       1.33068124       1.34568433       1.41470519       0.00000000
Si      -2.64725372       2.69333975       0.08449136       0.00000000
Si       0.04639392       2.73854450      -2.62818906       0.00000000
Si       2.70508484       0.02813283      -2.67928358       0.00000000
Si      -2.71103069      -2.67748958      -0.01056142       0.00000000
Si       2.71816571       2.70493823       0.11045729       0.00000000
Si       0.00420282      -2.70681158       2.72849338       0.00000000
