10
Lattice="16.290000149 0.0 0.0 0.0 16.290000149 0.0 0.0 0.0 29.1751946751" Properties=species:S:1:pos:R:3:initial_magmoms:R:1 pbc="T T T"
Si      -1.32730921       1.35889552       1.36630354       0.00000000
Si       1.37707516      -1.33993396       1.35909727       0.00000000
Si       1.41112126       1.40440978      -1.25755300       0.00000000
Si      -1.41980383      -1.42918687      -1.23544404       0.00000000
Si       0.07801281      -2.66485506      -2.51532190       0.00000000
Si       2.66916539       0.00345348      -2.62186096       0.00000000
Si      -2.66882330      -0.05833449      -2.64846874       0.00000000
Si       0.05119947       2.72285723       2.67125165       0.00000000
Si      -2.64460007       2.75041992       0.02485727       0.00000000
Si       0.09547569       2.66802509      -2.72960204       0.00000000
