10
Lattice="16.290000149 0.0 0.0 0.0 16.290000149 0.0 0.0 0.0 29.1751946751" Properties=species:S:1:pos:R:3:initial_magmoms:R:1 pbc="T T T"
Si      -1.32103756      -1.32551731       1.36549889       0.00000000
Si       1.26321621      -1.42874704      -1.32448032       0.00000000
Si      -1.14264577       1.50146560      -1.38113854       0.00000000
Si       1.50703190       1.38526903       1.16645988       0.00000000
Si       1.94321783       0.33790347      -2.82172213       0.00000000
H       -2.31203972       0.96168016      -2.44241543       0.00000000
Si       0.52653516       2.28708344      -2.82568996       0.00000000
Si       0.10634112       2.73453716       2.53570720       0.00000000
Si       0.12892742      -2.71023248       2.59166230       0.00000000
Si      -2.57908169       0.07543899       2.72980685       0.00000000
