10
Lattice="16.290000149 0.0 0.0 0.0 16.290000149 0.0 0.0 0.0 29.1751946751" Properties=species:S:1:pos:R:3:initial_magmoms:R:1 pbc="T T T"
H        0.72140266       0.07703541       1.32426209       0.00000000
H       -1.39942504       0.82476271       1.62001103       0.00000000
Si       1.60507000      -0.78939712      -1.52956793       0.00000000
Si      -1.87054814      -1.46543212      -0.15912151       0.00000000
Si      -0.33001911       1.95659192      -1.37482270       0.00000000
H        1.86395069       1.71124823       0.19147680       0.00000000
H        2.51243930       1.28518327       0.23748608       0.00000000
Si      -0.80132140       0.92577700       3.02100388       0.00000000
Si       0.11873781      -1.80385688      -2.99850981       0.00000000
Si      -0.99567739      -3.24322500      -1.44364698       0.00000000
