10
Lattice="16.290000149 0.0 0.0 0.0 16.290000149 0.0 0.0 0.0 29.1751946751" Properties=species:S:1:pos:R:3:initial_magmoms:R:1 pbc="T T T"
Si      -1.88763635      -1.33962445      -0.38875947       0.00000000
Si       0.51912972       1.25436259      -1.93224397       0.00000000
H       -0.89713918      -0.98930800       2.06750017       0.00000000
Si       1.93238498      -1.49229433       0.31707602       0.00000000
Si      -1.61215615       1.52916512       1.07872365       0.00000000
H       -2.79731883      -1.41371137       0.82656244       0.00000000
Si       0.19499130       2.85648411       1.68615120       0.00000000
Si      -2.78076819       0.08127081      -1.97956613       0.00000000
Si      -0.01383021      -1.84096550       2.95617660       0.00000000
Si       1.54725679      -0.37224279      -3.24693659       0.00000000
