10
Lattice="16.290000149 0.0 0.0 0.0 16.290000149 0.0 0.0 0.0 29.1751946751" Properties=species:S:1:pos:R:3:initial_magmoms:R:1 pbc="T T T"
H        1.31295772      -0.45906849       0.60345973       0.00000000
Si      -1.25924959       0.24627222       1.93819571       0.00000000
Si       0.26347446       2.02725794      -1.19840030       0.00000000
Si      -0.96316255      -1.99482455      -0.87942789       0.00000000
H        1.88077826      -0.58326346      -1.72810513       0.00000000
Si       3.06703236      -1.09491607      -0.92946335       0.00000000
H       -0.88363477      -2.82121626       1.69382428       0.00000000
Si      -1.92990890       2.75224440      -0.73124708       0.00000000
Si      -3.32187312      -0.44481474       1.03790755       0.00000000
H        1.07636176       0.16521318      -3.38120084       0.00000000
