10
Lattice="16.290000149 0.0 0.0 0.0 16.290000149 0.0 0.0 0.0 29.1751946751" Properties=species:S:1:pos:R:3:initial_magmoms:R:1 pbc="T T T"
Si      -1.26321621       1.42874704       1.32448032       0.00000000
Si       1.63436757      -1.18276804       1.21119625       0.00000000
Si       0.68000162       1.76665052      -1.49724182       0.00000000
Si      -1.33430577      -1.97542316      -0.48734245       0.00000000
Si       0.29817379      -2.58847939       2.56425746       0.00000000
Si       0.13618277       0.88013242      -3.58679843       0.00000000
Si      -2.58425377       0.10322973       2.68997921       0.00000000
Si      -0.40660003      -2.78830557      -2.48415113       0.00000000
Si       0.24381569       2.81401608       2.49094019       0.00000000
Si      -2.40586198       2.93021265      -0.05665823       0.00000000
