10
Lattice="16.290000149 0.0 0.0 0.0 16.290000149 0.0 0.0 0.0 29.1751946751" Properties=species:S:1:pos:R:3:initial_magmoms:R:1 pbc="T T T"
Si      -1.35055504      -1.34364808      -1.31157088       0.00000000
Si       1.39533625      -1.28407555       1.35915562       0.00000000
Si       1.38380293       1.33555195      -1.34153380       0.00000000
Si      -1.18452736       1.45161820       1.41120417       0.00000000
Si       2.27278082       0.60577624       2.42895166       0.00000000
Si       0.67069189       2.38348766       2.51872373       0.00000000
Si      -2.65939139       0.08350254      -2.61091735       0.00000000
Si       0.08713521      -2.67700088      -2.59495852       0.00000000
Si       0.02230101      -2.60333750       2.71676495       0.00000000
Si      -2.72153774      -2.59931387       0.12133963       0.00000000
