10
Lattice="16.290000149 0.0 0.0 0.0 16.290000149 0.0 0.0 0.0 29.1751946751" Properties=species:S:1:pos:R:3:initial_magmoms:R:1 pbc="T T T"
Si       0.63700417      -0.40037562       2.14633155       0.00000000
Si       1.83176165       0.82505593      -1.16461542       0.00000000
Si      -0.87744457      -1.88985179      -1.06979604       0.00000000
Si      -1.60208893       1.77771143       0.08977207       0.00000000
H        2.67652847       1.75966211      -0.35544140       0.00000000
Si      -2.27278082      -0.60577624      -2.42895166       0.00000000
Si       0.53698356       2.11944305      -2.59093234       0.00000000
Si      -1.47743785      -0.98142364       3.15328422       0.00000000
Si      -3.45730818       0.84584197      -1.01774749       0.00000000
Si      -0.54610596       3.53967042      -1.09304867       0.00000000
