10
Lattice="16.290000149 0.0 0.0 0.0 16.290000149 0.0 0.0 0.0 29.1751946751" Properties=species:S:1:pos:R:3:initial_magmoms:R:1 pbc="T T T"
Si      -1.55954597       1.09318933      -1.37003797       0.00000000
Si       1.44296821      -1.42029253      -1.23058054       0.00000000
Si       0.41541129       1.82465921       1.47174270       0.00000000
Si      -0.88780501      -1.45979578       1.66736238       0.00000000
H        0.33428709      -1.11873205       2.53421576       0.00000000
H       -0.72901009      -2.75861379      -1.15253689       0.00000000
Si      -1.89489028       2.01306935       2.06998006       0.00000000
Si      -0.25278822       2.58268178      -2.64435212       0.00000000
Si      -3.05735610       2.16477812       0.05126082       0.00000000
Si      -0.03132567      -2.71596656      -2.61520610       0.00000000
