10
Lattice="16.290000149 0.0 0.0 0.0 16.290000149 0.0 0.0 0.0 29.1751946751" Properties=species:S:1:pos:R:3:initial_magmoms:R:1 pbc="T T T"
Si      -0.97142158       1.45471330       1.51209199       0.00000000
Si       1.56732607      -1.27897678       1.12598746       0.00000000
Si       1.62033373       1.02798046      -1.39168596       0.00000000
Si      -1.89615602      -1.50091174      -0.31923498       0.00000000
H       -0.37343196      -2.34965333      -2.01597678       0.00000000
H        0.76911607      -0.71544052      -3.14876206       0.00000000
H       -2.49425966      -1.60192603      -1.72022783       0.00000000
Si       0.17606232      -2.71373483       2.30481120       0.00000000
Si      -2.66295890       2.38391120       0.20262173       0.00000000
H       -2.12822336       2.64070676      -1.18328755       0.00000000
