10
Lattice="16.290000149 0.0 0.0 0.0 16.290000149 0.0 0.0 0.0 29.1751946751" Properties=species:S:1:pos:R:3:initial_magmoms:R:1 pbc="T T T"
Si      -1.36034533      -1.36230013       1.34389699       0.00000000
Si       1.35433432       1.35329176       1.36093531       0.00000000
Si       1.36912564      -1.37914399      -1.32256993       0.00000000
Si      -1.38381922       1.33796287      -1.35028636       0.00000000
Si      -0.02006928       2.69952995      -2.67988751       0.00000000
Si       2.71635752      -0.04098564       2.66588341       0.00000000
Si      -0.00439830      -2.70573644      -2.68621852       0.00000000
Si      -2.73518876       0.00151497       2.67679494       0.00000000
Si       2.72919404       2.69566922       0.01840955       0.00000000
Si      -0.00990432      -2.73888660       2.68613100       0.00000000
