10
Lattice="16.290000149 0.0 0.0 0.0 16.290000149 0.0 0.0 0.0 29.1751946751" Properties=species:S:1:pos:R:3:initial_magmoms:R:1 pbc="T T T"
Si      -1.34599384      -1.33005082       1.34705083       0.00000000
Si       1.31531977      -1.32328395      -1.40071568       0.00000000
Si      -1.20262555       1.39727476      -1.44146176       0.00000000
Si       1.42856785       1.40395366       1.24257446       0.00000000
Si       2.30462777       0.46457451      -2.55162752       0.00000000
Si       0.67162042       2.20004597      -2.63635753       0.00000000
Si      -2.64723905      -2.65738772      -0.07836166       0.00000000
Si      -2.70228296       0.06517629       2.63615681       0.00000000
Si       2.69825933      -2.64771950      -0.03506858       0.00000000
Si       0.05064561       2.75278197       2.59324010       0.00000000
