10
Lattice="16.290000149 0.0 0.0 0.0 16.290000149 0.0 0.0 0.0 29.1751946751" Properties=species:S:1:pos:R:3:initial_magmoms:R:1 pbc="T T T"
Si       1.57820779      -1.08794395       1.32114034       0.00000000
Si      -1.23059548      -1.13709088      -1.62567102       0.00000000
Si      -1.60204006      -0.07341903       1.79074427       0.00000000
Si       1.29609757       1.58855194      -1.27968239       0.00000000
H        0.93175543      -1.91358632       2.39860945       0.00000000
H       -0.50622804      -2.82326880       1.84862786       0.00000000
Si      -1.72004483       2.23135535       2.02703418       0.00000000
Si      -2.64577295      -2.46348785      -0.38686308       0.00000000
Si       2.81676909      -2.45408852      -0.09557794       0.00000000
Si       0.13180239      -2.50670522      -2.88793582       0.00000000
