10
Lattice="16.290000149 0.0 0.0 0.0 16.290000149 0.0 0.0 0.0 29.1751946751" Properties=species:S:1:pos:R:3:initial_magmoms:R:1 pbc="T T T"
Si       1.34048782      -1.35625654      -1.34411347       0.00000000
Si       1.30407967       1.18431559       1.55343849       0.00000000
Si      -1.32134707      -1.40323690       1.34271481       0.00000000
Si      -1.21525030       1.41499828      -1.44978603       0.00000000
Si      -0.16345386      -2.64168416      -2.63053533       0.00000000
Si       0.40241187       2.90241865      -2.38733091       0.00000000
Si      -2.70290198      -0.04673601       2.66767127       0.00000000
Si      -2.69689097       2.71393227      -0.10994439       0.00000000
Si      -2.73395072      -2.69907383      -0.00177385       0.00000000
Si      -0.01609452       2.67334389       2.76205886       0.00000000
