10
Lattice="16.290000149 0.0 0.0 0.0 16.290000149 0.0 0.0 0.0 29.1751946751" Properties=species:S:1:pos:R:3:initial_magmoms:R:1 pbc="T T T"
Si       1.33390666       1.32802597      -1.40020512       0.00000000
Si      -1.19967706       1.47258343       1.42990547       0.00000000
Si       1.46903221      -1.20914155       1.45703840       0.00000000
Si      -1.56460564      -1.12275568      -1.46692879       0.00000000
H        1.83635543      -3.02138778      -0.80080074       0.00000000
Si      -0.17179434       2.63920808      -2.69173264       0.00000000
Si      -2.52626951       0.09032805       2.80632113       0.00000000
Si       2.92330569       2.46016469      -0.05721256       0.00000000
H        2.02054646       3.20132712       0.92003976       0.00000000
Si      -2.59941161       2.89636203       0.20559760       0.00000000
