10
Lattice="16.290000149 0.0 0.0 0.0 16.290000149 0.0 0.0 0.0 29.1751946751" Properties=species:S:1:pos:R:3:initial_magmoms:R:1 pbc="T T T"
Si      -1.22131018       1.85601746       0.66102239       0.00000000
Si      -1.53197677      -0.72360181      -1.61362167       0.00000000
Si       1.60875154       0.67331458      -1.56869187       0.00000000
Si       0.08104275      -1.46126188       1.92833449       0.00000000
H        0.33550884      -2.57514277      -0.88701344       0.00000000
H        0.08622297       2.40082022       1.57300980       0.00000000
H        1.50827482      -0.41280489      -2.61325136       0.00000000
Si      -2.74528857      -2.04331988      -0.11719676       0.00000000
H       -0.27083754       3.10363599      -2.02041141       0.00000000
Si       2.32717313      -1.96503014       2.20360245       0.00000000
