10
Lattice="16.290000149 0.0 0.0 0.0 16.290000149 0.0 0.0 0.0 29.1751946751" Properties=species:S:1:pos:R:3:initial_magmoms:R:1 pbc="T T T"
Si      -1.37845981       1.36609570       1.31215438       0.00000000
Si      -1.37831320      -1.33555195      -1.34439297       0.00000000
Si       1.35640315       1.35555607      -1.35752181       0.00000000
Si       1.35537688      -1.35159760       1.36784983       0.00000000
Si      -0.00144981       2.70607853       2.64496480       0.00000000
Si      -0.00723276      -2.68135031      -2.68280503       0.00000000
Si      -2.73248462       0.01500309       2.67408164       0.00000000
Si       2.71578737      -2.70337439       0.01572543       0.00000000
Si       0.00057015       2.72583830      -2.69654654       0.00000000
Si       2.72774423       0.01332522       2.69969746       0.00000000
