10
Lattice="16.290000149 0.0 0.0 0.0 16.290000149 0.0 0.0 0.0 29.1751946751" Properties=species:S:1:pos:R:3:initial_magmoms:R:1 pbc="T T T"
Si       1.72579520       0.93975382       1.27476374       0.00000000
Si      -0.86535739      -1.72855472       1.38130280       0.00000000
Si       0.72961282      -0.63513082      -2.17782588       0.00000000
Si      -1.70469965       1.66832408       0.12625011       0.00000000
H       -2.91701775      -0.95045635      -0.67396129       0.00000000
Si       0.46775106       2.34071012       2.63907170       0.00000000
Si      -2.36317403      -0.49288653       2.66118066       0.00000000
Si      -0.84264913      -2.32325213      -2.62108461       0.00000000
Si       2.97574320      -1.13889907      -1.90255792       0.00000000
Si      -2.35760285       2.09267858      -2.00484615       0.00000000
