10
Lattice="16.290000149 0.0 0.0 0.0 16.290000149 0.0 0.0 0.0 29.1751946751" Properties=species:S:1:pos:R:3:initial_magmoms:R:1 pbc="T T T"
Si      -1.21331179      -1.31971807       1.49642491       0.00000000
Si       1.53197677       0.72360181       1.61362167       0.00000000
Si       0.62667631      -1.07211007      -2.04719424       0.00000000
Si      -1.48149406       1.87126490      -0.35485789       0.00000000
H        1.86748562      -1.85154096       0.72660822       0.00000000
H        3.04025160       0.31079691      -0.99962970       0.00000000
Si      -1.86064382       1.22712571      -2.57879546       0.00000000
Si       3.14072832       1.39691638       0.04492980       0.00000000
Si       0.31066659       2.57961926       2.27464405       0.00000000
Si      -2.54457947       0.22928175       2.65167509       0.00000000
