10
Lattice="16.290000149 0.0 0.0 0.0 16.290000149 0.0 0.0 0.0 29.1751946751" Properties=species:S:1:pos:R:3:initial_magmoms:R:1 pbc="T T T"
Si       1.32103756       1.32551731      -1.36549889       0.00000000
Si      -1.25804413       1.40095630       1.36430796       0.00000000
Si      -1.72579520      -0.93975382      -1.27476374       0.00000000
Si       1.44996498      -1.38471517       1.22616341       0.00000000
Si      -3.43049484       0.72857026      -1.14851363       0.00000000
Si      -2.57368970       2.66457161      -0.10774108       0.00000000
Si      -2.59115258      -2.66830854       0.10653906       0.00000000
Si       2.58425377      -0.10322973      -2.68997921       0.00000000
Si      -2.66916539      -0.00345348       2.62186096       0.00000000
Si       2.81218508       0.01062108       2.54410907       0.00000000
