10
Lattice="16.290000149 0.0 0.0 0.0 16.290000149 0.0 0.0 0.0 29.1751946751" Properties=species:S:1:pos:R:3:initial_magmoms:R:1 pbc="T T T"
Si      -1.23176836       1.20128635       1.59605820       0.00000000
Si      -1.94209382      -0.85230910      -1.06196337       0.00000000
Si       1.30096828      -1.52994052       1.31798358       0.00000000
Si       1.47804824       1.30793405      -1.37249452       0.00000000
H       -0.86426596      -2.56749950      -1.85201802       0.00000000
Si      -2.64860741       2.54427974       0.34159485       0.00000000
Si       2.64927368      -0.28276182      -2.65970411       0.00000000
Si       2.82497273       2.52087915       0.10933404       0.00000000
Si      -3.68786055       0.69012586      -0.61031881       0.00000000
Si       2.69154134      -0.24299793       2.75276131       0.00000000
