10
Lattice="16.290000149 0.0 0.0 0.0 16.290000149 0.0 0.0 0.0 29.1751946751" Properties=species:S:1:pos:R:3:initial_magmoms:R:1 pbc="T T T"
Si       1.34035750       1.36252819       1.36519488       0.00000000
Si      -1.35095903       1.35925390      -1.35979747       0.00000000
Si      -1.35850782      -1.35221662       1.36242324       0.00000000
Si       1.36878355      -1.35353611      -1.35180347       0.00000000
Si      -2.68143264       2.70866864       0.03139251       0.00000000
Si       2.70743060       0.00532683       2.69359985       0.00000000
Si       0.00871515      -2.70798446      -2.70544498       0.00000000
Si      -2.71067231      -2.70467759       0.00125453       0.00000000
Si       2.70871751       2.70663239       0.02237737       0.00000000
Si       2.71700912      -2.71409321       0.01397492       0.00000000
