10
Lattice="16.290000149 0.0 0.0 0.0 16.290000149 0.0 0.0 0.0 29.1751946751" Properties=species:S:1:pos:R:3:initial_magmoms:R:1 pbc="T T T"
Si       1.80714746       1.32731899       0.60742755       0.00000000
Si      -0.73518400      -0.34211607       2.26081501       0.00000000
Si      -1.21640689       1.87153531      -0.95210330       0.00000000
Si       1.61215615      -1.52916512      -1.07872365       0.00000000
H        0.71501698      -2.51847312       0.98877652       0.00000000
H       -1.18516267      -2.94287649      -0.25216121       0.00000000
Si      -0.27548019      -2.86878957      -1.46748312       0.00000000
Si       0.47587977       2.87631881       1.76267774       0.00000000
Si      -1.46289088       1.84848496       2.66471641       0.00000000
Si      -1.16861203      -1.44789431      -3.05828978       0.00000000
