10
Lattice="16.290000149 0.0 0.0 0.0 16.290000149 0.0 0.0 0.0 29.1751946751" Properties=species:S:1:pos:R:3:initial_magmoms:R:1 pbc="T T T"
Si      -1.45381735      -1.29956734       1.30121368       0.00000000
Si       1.36638892      -1.38860848      -1.31072480       0.00000000
Si      -1.36691020       1.32571279      -1.37639816       0.00000000
Si       1.37878561       1.35031069       1.34372194       0.00000000
Si      -0.05870916       2.71863812       2.57771598       0.00000000
Si      -0.22007790      -2.68912064       2.67979998       0.00000000
Si       2.72098388       2.68240916      -0.02818324       0.00000000
Si       2.72095130      -0.04088790      -2.68262998       0.00000000
Si       0.00477297      -2.73478152      -2.67510278       0.00000000
Si      -0.01288539       2.67680540      -2.73832542       0.00000000
