10
Lattice="16.290000149 0.0 0.0 0.0 16.290000149 0.0 0.0 0.0 29.1751946751" Properties=species:S:1:pos:R:3:initial_magmoms:R:1 pbc="T T T"
Si      -1.30978679      -1.33042191       1.37488105       0.00000000
Si       1.23256258       1.35474841       1.44507657       0.00000000
Si      -1.46670836       1.29954160      -1.26804149       0.00000000
Si       1.38316689      -1.39198182      -1.29456174       0.00000000
Si       2.61522358      -0.09353848       2.60642437       0.00000000
Si      -0.08235157       2.63912533      -2.64589841       0.00000000
Si       2.63812732       2.65440535       0.06208481       0.00000000
Si      -2.62021956       0.07530199       2.71446011       0.00000000
Si       2.72031037      -0.03852715      -2.66174054       0.00000000
Si      -2.58433269      -2.79337795       0.07722674       0.00000000
