10
Lattice="16.290000149 0.0 0.0 0.0 16.290000149 0.0 0.0 0.0 29.1751946751" Properties=species:S:1:pos:R:3:initial_magmoms:R:1 pbc="T T T"
Si       2.06835761      -0.71868386       0.84984425       0.00000000
Si       0.75261430       0.57997776      -2.16474109       0.00000000
Si      -1.28141051      -1.99005647      -0.10961121       0.00000000
Si      -0.59209264       1.51436240       1.77172205       0.00000000
H        0.68619997       1.56262967       2.58842327       0.00000000
H        0.13030371       1.88531828      -2.60700787       0.00000000
Si      -0.08954613       3.38841288       0.14540917       0.00000000
Si       1.28901142      -2.22163511       2.55968570       0.00000000
Si       3.11873682      -1.39537372      -1.21748087       0.00000000
Si      -1.96420912       0.13286124       3.09951433       0.00000000
