10
Lattice="16.290000149 0.0 0.0 0.0 16.290000149 0.0 0.0 0.0 29.1751946751" Properties=species:S:1:pos:R:3:initial_magmoms:R:1 pbc="T T T"
Si      -1.34607203       1.36086498      -1.35524614       0.00000000
Si       1.35668008       1.36232945       1.35072399       0.00000000
Si      -1.37594301      -1.34793235       1.35028636       0.00000000
Si       1.31777956      -1.37093383      -1.38871009       0.00000000
Si       0.01329264      -2.69711903       2.67965411       0.00000000
Si      -2.66015540      -0.02327841      -2.71892392       0.00000000
Si       2.70526403      -0.01167993      -2.69295799       0.00000000
Si      -0.02757897       2.71717202       2.68510987       0.00000000
Si      -2.69013150      -2.71476110      -0.04352939       0.00000000
Si       2.70001865      -2.71679735      -0.05254453       0.00000000
