10
Lattice="10.86 0.0 0.0 0.0 10.86 0.0 0.0 0.0 10.86" Properties=species:S:1:pos:R:3:initial_magmoms:R:1 pbc="T T T"
Si      -0.23747562      -1.86839784      -1.40955198       0.00000000
Si      -0.86606328       0.34329546       2.40175416       0.00000000
Si      -1.60726914       2.17037100      -0.16850376       0.00000000
Si       2.16861168      -1.60908276       0.62171328       0.00000000
Si      -1.72555626      -0.44625912      -3.04329780       0.00000000
Si      -3.10418982       1.12811508      -1.46339586       0.00000000
Si      -1.72555626      -3.16125912      -0.32829780       0.00000000
Si       2.80436694       1.39707384      -2.19303582       0.00000000
Si       0.98944374       2.26874088      -3.04329780       0.00000000
Si      -0.38006742      -1.73243064       3.58892592       0.00000000
