10
Lattice="10.86 0.0 0.0 0.0 10.86 0.0 0.0 0.0 10.86" Properties=species:S:1:pos:R:3:initial_magmoms:R:1 pbc="T T T"
Si       1.35750000       1.35750000       1.35750000       0.00000000
Si      -1.35750000      -1.35750000       1.35750000       0.00000000
Si       1.35750000      -1.35750000      -1.35750000       0.00000000
Si      -1.35750000       1.35750000      -1.35750000       0.00000000
Si       0.04309248      -2.58566826       2.63197530       0.00000000
Si      -2.78682804      -2.46354756      -0.08198214       0.00000000
Si      -0.01299942      -2.58804660      -2.80426920       0.00000000
Si      -0.05395248       2.79921930      -2.59840704       0.00000000
Si      -2.48951382       2.90215038      -0.05093340       0.00000000
Si       2.71500000       0.00000000       2.71500000       0.00000000
