10
Lattice="10.86 0.0 0.0 0.0 10.86 0.0 0.0 0.0 10.86" Properties=species:S:1:pos:R:3:initial_magmoms:R:1 pbc="T T T"
Si      -1.20309252       1.08290490      -1.45892154       0.00000000
Si       1.43138058       1.46536152       1.14959616       0.00000000
Si      -1.20309252      -1.63209510       1.25607846       0.00000000
Si       1.51190748      -1.63209510      -1.45892154       0.00000000
Si       2.48433360      -0.46694742       2.07531342       0.00000000
Si      -2.56059252       2.44040490      -0.10142154       0.00000000
Si      -2.56059252      -0.27459510       2.61357846       0.00000000
Si       0.15440748       2.44040490      -2.81642154       0.00000000
Si      -2.56059252      -0.27459510      -2.81642154       0.00000000
Si       0.21877470       2.58376776       2.89738284       0.00000000
