10
Lattice="10.86 0.0 0.0 0.0 10.86 0.0 0.0 0.0 10.86" Properties=species:S:1:pos:R:3:initial_magmoms:R:1 pbc="T T T"
Si       1.36761066      -1.20689352      -1.32234618       0.00000000
Si      -1.34738934      -1.20689352       1.39265382       0.00000000
Si       1.36761066       1.50810648       1.39265382       0.00000000
Si       0.01011066      -2.56439352      -2.67984618       0.00000000
Si      -2.70488934      -2.56439352       0.03515382       0.00000000
Si       2.72511066      -2.56439352       0.03515382       0.00000000
Si       0.01011066      -2.56439352       2.75015382       0.00000000
Si      -2.62283118       0.21541896      -2.73010626       0.00000000
Si       2.72511066       0.15060648      -2.67984618       0.00000000
Si      -2.72467626       0.16094520       2.71413120       0.00000000
