10
Lattice="10.86 0.0 0.0 0.0 10.86 0.0 0.0 0.0 10.86" Properties=species:S:1:pos:R:3:initial_magmoms:R:1 pbc="T T T"
Si       1.30001802      -1.35413340      -1.26450582       0.00000000
Si      -1.41498198       1.36086660      -1.26450582       0.00000000
Si      -1.47446220      -1.13211156       1.44467322       0.00000000
Si       1.30001802       1.36086660       1.45049418       0.00000000
Si       0.12085008      -2.35653312       2.58975162       0.00000000
Si       2.65751802       0.00336660      -2.62200582       0.00000000
Si       2.69134692      -2.62667562      -0.00534312       0.00000000
Si      -0.05748198      -2.71163340      -2.62200582       0.00000000
Si      -0.05748198       2.71836660      -2.62200582       0.00000000
Si       2.65751802       2.71836660       0.09299418       0.00000000
