10
Lattice="10.86 0.0 0.0 0.0 10.86 0.0 0.0 0.0 10.86" Properties=species:S:1:pos:R:3:initial_magmoms:R:1 pbc="T T T"
Si      -1.30023522      -1.34383812       1.35811902       0.00000000
Si      -1.30023522       1.37116188      -1.35688098       0.00000000
Si       1.41476478       1.37116188       1.35811902       0.00000000
Si      -2.50428342      -2.68285440       0.03039714       0.00000000
Si       0.23559684      -2.34623784      -2.93262354       0.00000000
Si       2.77063578      -2.57563362      -0.01138128       0.00000000
Si      -2.65773522       0.01366188       2.71561902       0.00000000
Si      -2.65773522       2.72866188       0.00061902       0.00000000
Si       0.05726478      -2.70133812       2.71561902       0.00000000
Si       0.05726478       2.72866188      -2.71438098       0.00000000
