10
Lattice="16.28999089631971 0.0 0.0 0.0 16.28999089631971 0.0 0.0 0.0 34.33025523377368" Properties=species:S:1:pos:R:3:initial_magmoms:R:1 pbc="T T T"
Si      -0.69897132      -1.74394224      -1.51894299       0.00000000
Si      -0.24423597       0.73404369       2.36054967       0.00000000
Si       1.46404746       1.28303298      -1.57720147       0.00000000
Si       0.52471719      -2.80505655       0.32960496       0.00000000
Si       0.57358719      -0.37667367      -3.08886644       0.00000000
Si       2.93858568       1.58967594       0.33238572       0.00000000
Si       1.46997702       2.44086102       2.02277410       0.00000000
Si       1.97954451      -2.23050825       2.42639514       0.00000000
Si       3.20197869      -0.06002865       2.13067415       0.00000000
Si       0.27829836      -1.17564930       3.78027817       0.00000000
