10
Lattice="16.28999089631971 0.0 0.0 0.0 16.28999089631971 0.0 0.0 0.0 34.33025523377368" Properties=species:S:1:pos:R:3:initial_magmoms:R:1 pbc="T T T"
Si      -2.03892156       1.21878522       0.28645181       0.00000000
Si       0.52253433      -1.90969299       1.41972850       0.00000000
Si       1.71421299       1.70681733      -0.33777557       0.00000000
Si       0.24423597      -0.73404369      -2.36054967       0.00000000
Si       3.44621466      -0.79407234      -0.22987552       0.00000000
Si       0.87459381      -0.84541842       3.47587162       0.00000000
Si      -1.28397780       3.43686420       0.35318986       0.00000000
Si       2.22378048      -2.96455194       0.06584547       0.00000000
Si       0.30822309       3.37926276      -1.57215492       0.00000000
Si      -3.02427108       0.45352989       2.25762751       0.00000000
