10
Lattice="16.28999089631971 0.0 0.0 0.0 16.28999089631971 0.0 0.0 0.0 34.33025523377368" Properties=species:S:1:pos:R:3:initial_magmoms:R:1 pbc="T T T"
Si      -0.99250083       2.08103121      -0.27041957       0.00000000
Si       2.20760451       0.20326662      -0.69796881       0.00000000
Si      -0.43192935      -1.08558189       2.04062584       0.00000000
Si      -1.05182901      -1.14510555      -1.77346765       0.00000000
Si      -3.25664793       1.23090498       0.14586934       0.00000000
Si      -1.27311237      -3.25373365      -0.68265751       0.00000000
Si      -0.01047447       2.74196538      -2.32436556       0.00000000
Si      -2.13284970      -2.53959471       1.41114593       0.00000000
Si       3.29517378       1.30331403       1.04968247       0.00000000
Si       2.11838418       1.63631421      -2.65489744       0.00000000
