10
Lattice="16.28999089631971 0.0 0.0 0.0 16.28999089631971 0.0 0.0 0.0 34.33025523377368" Properties=species:S:1:pos:R:3:initial_magmoms:R:1 pbc="T T T"
Si       0.74494170       1.79799246      -1.37767391       0.00000000
Si      -1.93003920      -0.94319100      -1.23959755       0.00000000
Si       0.42946956       1.00419705       2.26404727       0.00000000
Si       1.76055804      -1.81459197       0.11445713       0.00000000
Si       2.02294107       0.40469247      -2.79846665       0.00000000
Si      -0.69713055      -2.30728302      -2.78188513       0.00000000
Si       3.34230075      -0.98329698      -1.38893424       0.00000000
Si       2.83028976       1.53960048       1.93657078       0.00000000
Si       0.68271390      -3.49488918      -1.22136817       0.00000000
Si       2.12713191       3.11718924       0.09440825       0.00000000
