10
Lattice="16.28999089631971 0.0 0.0 0.0 16.28999089631971 0.0 0.0 0.0 34.33025523377368" Properties=species:S:1:pos:R:3:initial_magmoms:R:1 pbc="T T T"
Si       1.95214473      -1.33929864       0.24590776       0.00000000
Si      -1.41866352       0.79174287       1.82413913       0.00000000
Si       0.93590937       1.28912544      -1.85919034       0.00000000
Si      -1.53223740      -1.45202544      -1.31048957       0.00000000
Si       0.18375120       3.50006940      -1.23908259       0.00000000
Si      -3.51203440      -1.22706054       0.03563482       0.00000000
Si      -2.75385871      -1.06315056       2.28454244       0.00000000
Si       1.19720097      -3.55737762       0.17916970       0.00000000
Si       1.87294275       1.06969914       3.11588437       0.00000000
Si       2.97685089      -0.82204227       2.29305635       0.00000000
