10
Lattice="16.28999089631971 0.0 0.0 0.0 16.28999089631971 0.0 0.0 0.0 34.33025523377368" Properties=species:S:1:pos:R:3:initial_magmoms:R:1 pbc="T T T"
Si      -0.75494376      -2.21807898      -0.06673805       0.00000000
Si       1.02470616       0.51725637       2.04714859       0.00000000
Si      -1.95214473       1.33929864      -0.24590776       0.00000000
Si       1.59220089      -0.05760144      -1.92534478       0.00000000
Si      -1.01623536       2.62842408      -2.10509810       0.00000000
Si       2.99819079      -1.73004687      -0.69096543       0.00000000
Si       1.28397780      -3.43686420      -0.35318986       0.00000000
Si      -0.07920198       2.40899778       2.86997661       0.00000000
Si      -3.48438213      -0.11272680      -1.55639732       0.00000000
Si      -2.59325397      -2.37009726      -1.69354677       0.00000000
