10
Lattice="16.28999089631971 0.0 0.0 0.0 16.28999089631971 0.0 0.0 0.0 34.33025523377368" Properties=species:S:1:pos:R:3:initial_magmoms:R:1 pbc="T T T"
Si       1.71470169       0.97950141      -1.14326268       0.00000000
Si       1.26721539      -1.45534860       1.28832251       0.00000000
Si      -1.45681470       1.28142027       1.27828433       0.00000000
Si      -1.23650874      -1.24250346      -1.53879074       0.00000000
Si      -0.09819612       2.62164744       2.64014572       0.00000000
Si       2.61853605      -0.09282042       2.64375040       0.00000000
Si      -2.66053167      -2.61289971      -0.08930334       0.00000000
Si       0.84680307       2.31853941      -2.81694118       0.00000000
Si       2.80059309      -2.51599050      -0.17029533       0.00000000
Si      -2.63586861       2.73320136      -0.19632454       0.00000000
