10
Lattice="16.28999089631971 0.0 0.0 0.0 16.28999089631971 0.0 0.0 0.0 34.33025523377368" Properties=species:S:1:pos:R:3:initial_magmoms:R:1 pbc="T T T"
Si       1.78587270      -1.40379075       0.60792050       0.00000000
Si      -1.87940825       0.13668939       1.42082707       0.00000000
Si      -0.86296112      -1.60428318      -1.56497989       0.00000000
Si       0.66207447       2.36670894      -0.65735609       0.00000000
Si       0.76061268       1.12865265      -2.90389492       0.00000000
Si      -3.04034021       1.67156577       0.06368266       0.00000000
Si       1.17910278       2.79590157       1.97556997       0.00000000
Si      -1.02189451      -0.33743106      -3.52448329       0.00000000
Si       3.48679305       0.05022207       1.23740041       0.00000000
Si       2.64561003      -2.11792969      -1.48588294       0.00000000
