10
Lattice="16.28999089631971 0.0 0.0 0.0 16.28999089631971 0.0 0.0 0.0 34.33025523377368" Properties=species:S:1:pos:R:3:initial_magmoms:R:1 pbc="T T T"
Si       0.86789862      -1.33903800       1.67367850       0.00000000
Si      -1.12728429      -1.22543154      -1.69478266       0.00000000
Si       2.20231026       0.15758946      -0.92667710       0.00000000
Si      -1.76867046       1.44181161       1.01706871       0.00000000
Si       1.86525387       0.37439307       2.79658333       0.00000000
Si      -2.12421600       2.72587316      -1.03526376       0.00000000
Si      -3.07433025      -2.02828419      -0.33056621       0.00000000
Si      -0.84680307      -2.31853941       2.81694118       0.00000000
Si       3.38327010       1.10943045       1.16304104       0.00000000
Si       2.60902269      -2.40772716      -1.25624773       0.00000000
