10
Lattice="16.28999089631971 0.0 0.0 0.0 16.28999089631971 0.0 0.0 0.0 34.33025523377368" Properties=species:S:1:pos:R:3:initial_magmoms:R:1 pbc="T T T"
Si      -0.99178407      -1.39421875      -1.63611222       0.00000000
Si       0.30004551       1.97542314      -1.27131872       0.00000000
Si      -1.87724331       0.41907654       1.44070430       0.00000000
Si       1.93306914      -0.79657448       1.25782692       0.00000000
Si       0.93877641      -2.79051677       2.03104770       0.00000000
Si       0.81379953      -2.90531240      -1.95442252       0.00000000
Si       2.15945127       2.90584278      -0.36211573       0.00000000
Si      -1.52583543       0.24322599      -3.30267539       0.00000000
Si      -2.19584313       2.69493615       1.32933689       0.00000000
Si      -1.72804320       3.20378688      -0.91308231       0.00000000
