10
Lattice="16.28999089631971 0.0 0.0 0.0 16.28999089631971 0.0 0.0 0.0 34.33025523377368" Properties=species:S:1:pos:R:3:initial_magmoms:R:1 pbc="T T T"
Si      -0.83826711       2.22703848       0.20749218       0.00000000
Si       1.80897192       0.20336436      -1.63364044       0.00000000
Si      -1.99585080      -1.04412384      -1.18532138       0.00000000
Si       1.03011444       0.27676710       2.61593674       0.00000000
Si      -0.24128748       2.27688588       2.57806598       0.00000000
Si      -0.60235533       2.81258253      -2.15261120       0.00000000
Si       1.56890619       2.23980984      -2.76513195       0.00000000
Si      -2.17375389      -0.08286723      -3.27023328       0.00000000
Si       3.91640922       0.34722135      -0.39764757       0.00000000
Si       1.63655856      -1.29851825      -3.45311065       0.00000000
