10
Lattice="16.28999089631971 0.0 0.0 0.0 16.28999089631971 0.0 0.0 0.0 34.33025523377368" Properties=species:S:1:pos:R:3:initial_magmoms:R:1 pbc="T T T"
Si       1.27140192      -2.00011878       0.03787076       0.00000000
Si      -1.82190618      -1.01512764       1.18075717       0.00000000
Si       1.00892115       1.87533738       1.16548020       0.00000000
Si      -0.59697963      -0.04984740      -2.37057381       0.00000000
Si       2.23567218       0.30120210       2.60628749       0.00000000
Si       0.24128748      -2.27688588      -2.57806598       0.00000000
Si      -0.49511826      -2.44434708       2.60888629       0.00000000
Si       3.29396832      -1.21336065       1.10609913       0.00000000
Si      -2.79134037       0.75950496      -2.41722865       0.00000000
Si      -0.48179304       3.01832523       2.60948707       0.00000000
