10
Lattice="16.28999089631971 0.0 0.0 0.0 16.28999089631971 0.0 0.0 0.0 34.33025523377368" Properties=species:S:1:pos:R:3:initial_magmoms:R:1 pbc="T T T"
Si       1.35681039      -1.35638685       1.35340241       0.00000000
Si      -1.35822762      -1.35638685      -1.35851762       0.00000000
Si       1.35689184       1.35829278      -1.35872360       0.00000000
Si      -1.36140417       1.35985662       1.35868927       0.00000000
Si       2.69943219      -0.00496845       2.72294005       0.00000000
Si       2.71397916      -2.71147050      -0.00068661       0.00000000
Si      -2.71410948      -2.71264338      -0.00085826       0.00000000
Si       0.00720018      -2.70242955       2.72568647       0.00000000
Si      -0.00161271      -2.71264338      -2.71593667       0.00000000
Si       2.71324611       2.71604799      -0.00044629       0.00000000
