10
Lattice="16.28999089631971 0.0 0.0 0.0 16.28999089631971 0.0 0.0 0.0 34.33025523377368" Properties=species:S:1:pos:R:3:initial_magmoms:R:1 pbc="T T T"
Si       0.36685080      -2.27874294      -0.25651581       0.00000000
Si       2.19517524       0.65826261      -0.45714193       0.00000000
Si      -0.73326177       0.86692122      -2.05473558       0.00000000
Si      -1.53386640       0.25715394       1.88600229       0.00000000
Si       1.59485616       1.03244391      -2.77319957       0.00000000
Si      -2.56264506       2.06687520      -1.11044706       0.00000000
Si       0.13093902      -2.86428699       2.10358757       0.00000000
Si      -2.06342172      -2.05493463       2.05693272       0.00000000
Si      -3.06286209      -1.84875210      -0.02842547       0.00000000
Si      -1.52314758      -2.89833309      -1.48550530       0.00000000
