10
Lattice="16.28999089631971 0.0 0.0 0.0 16.28999089631971 0.0 0.0 0.0 34.33025523377368" Properties=species:S:1:pos:R:3:initial_magmoms:R:1 pbc="T T T"
Si      -1.35943308      -1.35092970       1.36133270       0.00000000
Si      -1.35526284       1.35765747      -1.36013114       0.00000000
Si       1.34532594       1.36094805       1.36826742       0.00000000
Si       1.35775521      -1.35936792      -1.35868927       0.00000000
Si       0.03041343      -2.63640618       2.74532338       0.00000000
Si      -0.14799465       2.63547765       2.77199801       0.00000000
Si      -2.71606428       2.71420722      -0.00168218       0.00000000
Si       0.00149868       2.71334385      -2.71713823       0.00000000
Si      -2.71422351      -0.00136836      -2.71689792       0.00000000
Si      -2.71689507      -2.71555929       0.00044629       0.00000000
