10
Lattice="16.28999089631971 0.0 0.0 0.0 16.28999089631971 0.0 0.0 0.0 34.33025523377368" Properties=species:S:1:pos:R:3:initial_magmoms:R:1 pbc="T T T"
Si       0.94855041      -1.97488557      -0.85180277       0.00000000
Si       0.67083849      -0.15310971       2.25065846       0.00000000
Si       0.58736853       2.19243852      -0.65855765       0.00000000
Si      -2.33639325      -0.36805626      -0.00408530       0.00000000
Si      -2.35745622      -1.93173336       1.78438467       0.00000000
Si      -0.18811692      -2.28540555       2.69121887       0.00000000
Si       0.38476980       3.20450364       1.46507879       0.00000000
Si      -0.38884230       1.72641420       3.15848824       0.00000000
Si      -0.36290862      -2.61535950      -2.74219933       0.00000000
Si       3.06165663      -1.27949805      -1.87093130       0.00000000
