10
Lattice="16.28999089631971 0.0 0.0 0.0 16.28999089631971 0.0 0.0 0.0 34.33025523377368" Properties=species:S:1:pos:R:3:initial_magmoms:R:1 pbc="T T T"
Si      -0.94855041       1.97488557       0.85180277       0.00000000
Si      -1.31145903      -0.64047393      -1.89039656       0.00000000
Si       2.11310622       0.69538752      -1.01912853       0.00000000
Si      -0.30936339      -1.66540815       1.79447777       0.00000000
Si      -0.27771192       1.82177586       3.10246123       0.00000000
Si       0.42054264      -3.14136360      -1.78249651       0.00000000
Si      -1.13666733      -0.31051998       3.54302164       0.00000000
Si      -3.28494366       1.60682931       0.84771747       0.00000000
Si       1.36344042       0.53330202      -3.53042243       0.00000000
Si       3.63661218      -1.05661827      -0.57389920       0.00000000
