10
Lattice="16.28999089631971 0.0 0.0 0.0 16.28999089631971 0.0 0.0 0.0 34.33025523377368" Properties=species:S:1:pos:R:3:initial_magmoms:R:1 pbc="T T T"
Si      -1.35536058      -1.35635427      -1.35752204       0.00000000
Si       1.35765747      -1.35746199       1.35645780       0.00000000
Si      -1.35764118       1.35745250       1.35700709       0.00000000
Si       1.35716877       1.35750571      -1.35796833       0.00000000
Si       0.00089595      -2.71314837       2.71346489       0.00000000
Si      -2.71383255       0.00000000       2.71356788       0.00000000
Si      -0.00014661       2.71672470      -2.71181704       0.00000000
Si      -0.00066789      -2.71572219      -2.71329324       0.00000000
Si       2.71498914       0.00027693       2.71446047       0.00000000
Si       2.71454931       2.71498981      -0.00061794       0.00000000
