10
Lattice="16.28999089631971 0.0 0.0 0.0 16.28999089631971 0.0 0.0 0.0 34.33025523377368" Properties=species:S:1:pos:R:3:initial_magmoms:R:1 pbc="T T T"
Si      -0.20259873       1.01206512       2.12363645       0.00000000
Si      -1.76590116       0.98886816      -1.21803814       0.00000000
Si      -0.58736853      -2.19243852       0.65855765       0.00000000
Si       2.18975067       0.39092742      -0.89770235       0.00000000
Si       1.35948195       0.13761792      -3.11430517       0.00000000
Si       2.07334233       0.74823228       2.79681880       0.00000000
Si      -3.40975764       1.39079133       0.45779421       0.00000000
Si       0.08346996      -2.34554823       2.90921611       0.00000000
Si      -1.01291220       3.11503654      -1.99256346       0.00000000
Si      -2.09497545       2.51659323       2.06105236       0.00000000
