10
Lattice="16.28999089631971 0.0 0.0 0.0 16.28999089631971 0.0 0.0 0.0 34.33025523377368" Properties=species:S:1:pos:R:3:initial_magmoms:R:1 pbc="T T T"
Si       1.76590116      -0.98886816       1.21803814       0.00000000
Si      -1.64385648       0.40192317       1.67583235       0.00000000
Si       0.75298896       2.12616838      -0.77452532       0.00000000
Si      -0.79798194      -0.90279180      -2.60721269       0.00000000
Si      -0.32907429       1.52772507       3.27909049       0.00000000
Si       1.56330243       0.02319696       3.34167458       0.00000000
Si       3.12538311      -0.85125024      -1.89626704       0.00000000
Si      -3.41181018       1.68995718       0.72007751       0.00000000
Si       1.17853263      -3.18130668       1.87659579       0.00000000
Si      -2.26176876      -1.65762153       2.69533851       0.00000000
