10
Lattice="16.28999089631971 0.0 0.0 0.0 16.28999089631971 0.0 0.0 0.0 34.33025523377368" Properties=species:S:1:pos:R:3:initial_magmoms:R:1 pbc="T T T"
Si      -1.35716877       1.35508365       1.35408901       0.00000000
Si       1.35798327       1.35472527      -1.35776235       0.00000000
Si      -1.35679410      -1.36026387      -1.35765936       0.00000000
Si       1.35676152      -1.36102950       1.36191632       0.00000000
Si      -2.71397916       2.71147050       0.00068661       0.00000000
Si       0.00063531       2.71220355      -2.71514707       0.00000000
Si       2.71551042       2.71308321      -0.00030897       0.00000000
Si       2.71549413      -0.00089595      -2.71435748       0.00000000
Si      -0.01454697       2.70650205       2.72362665       0.00000000
Si      -2.71394658      -2.71686249      -0.00024031       0.00000000
