10
Lattice="16.28999089631971 0.0 0.0 0.0 16.28999089631971 0.0 0.0 0.0 34.33025523377368" Properties=species:S:1:pos:R:3:initial_magmoms:R:1 pbc="T T T"
Si       1.35770831       1.35692442      -1.35714441       0.00000000
Si      -1.35752715      -1.35835794      -1.35745338       0.00000000
Si       1.36075207      -1.35896067       1.35841463       0.00000000
Si      -1.35943308       1.35571896       1.36397613       0.00000000
Si      -0.00001629      -2.71397916      -2.71404850       0.00000000
Si       2.71398635      -0.00107514      -2.71452913       0.00000000
Si      -2.71551042      -2.71308321       0.00030897       0.00000000
Si       0.00042354       2.71401174      -2.71480377       0.00000000
Si      -2.71487511      -0.00087966      -2.71483810       0.00000000
Si      -2.71624347       2.71443528       0.00054928       0.00000000
