10
Lattice="16.28999089631971 0.0 0.0 0.0 16.28999089631971 0.0 0.0 0.0 34.33025523377368" Properties=species:S:1:pos:R:3:initial_magmoms:R:1 pbc="T T T"
Si      -0.20743686       0.47444625       2.28897105       0.00000000
Si      -1.70012214      -1.05194304      -1.23101498       0.00000000
Si       1.09920033       1.53389898      -1.44218050       0.00000000
Si       1.81226250      -1.57082841       0.05808682       0.00000000
Si       3.25026618       0.38141406      -0.93433275       0.00000000
Si      -0.33805008      -1.72724499       3.06452628       0.00000000
Si       2.09530125       0.08231337       2.87121250       0.00000000
Si      -0.61336737      -1.09066437      -3.37638249       0.00000000
Si       1.81020996      -2.19685311       2.33078532       0.00000000
Si      -2.02331574      -3.16110708      -0.15603110       0.00000000
