10
Lattice="16.28999089631971 0.0 0.0 0.0 16.28999089631971 0.0 0.0 0.0 34.33025523377368" Properties=species:S:1:pos:R:3:initial_magmoms:R:1 pbc="T T T"
Si      -1.12909248      -1.76647131      -1.02139432       0.00000000
Si       1.97967483       0.30753891      -1.24715021       0.00000000
Si      -1.47202956       1.74330693      -0.60949969       0.00000000
Si       0.72189135       0.19201023       2.32694033       0.00000000
Si       2.50325239       1.82017944       1.54421007       0.00000000
Si      -3.30035400      -1.19369862      -0.40887357       0.00000000
Si      -0.83505798      -1.60238214      -3.32931568       0.00000000
Si      -0.67303764       3.72850407       0.23203832       0.00000000
Si      -3.66720480       1.08504432      -0.15235776       0.00000000
Si       2.94613188       2.33979786      -0.78231829       0.00000000
