10
Lattice="16.28999089631971 0.0 0.0 0.0 16.28999089631971 0.0 0.0 0.0 34.33025523377368" Properties=species:S:1:pos:R:3:initial_magmoms:R:1 pbc="T T T"
Si      -1.44205596       1.85987817      -0.42298331       0.00000000
Si      -1.15751853      -2.00298582      -0.73765461       0.00000000
Si       0.47260548      -0.92887209       2.19528373       0.00000000
Si       1.90741239       0.41518323      -1.47084628       0.00000000
Si       3.24553719      -1.49656230      -1.12823014       0.00000000
Si       0.36598743      -3.75499161      -0.29242528       0.00000000
Si      -2.27232468       1.60656867      -2.63958614       0.00000000
Si       2.61387517      -0.22677309       2.79850098       0.00000000
Si      -1.31092146      -0.19235232       3.64923951       0.00000000
Si      -0.22851612       3.89995632       0.01980857       0.00000000
