10
Lattice="16.28999089631971 0.0 0.0 0.0 16.28999089631971 0.0 0.0 0.0 34.33025523377368" Properties=species:S:1:pos:R:3:initial_magmoms:R:1 pbc="T T T"
Si      -0.60370740      -2.04551901       0.93326851       0.00000000
Si       2.21252409       0.46126764       0.56325681       0.00000000
Si      -1.28622582       1.46175057       1.31701232       0.00000000
Si      -0.31991931       0.56428560      -2.28152138       0.00000000
Si       1.93072338       2.81233818       0.71139195       0.00000000
Si      -2.55733452      -0.11995956      -2.54682574       0.00000000
Si       0.76419648      -3.56369814      -0.24604508       0.00000000
Si      -0.31829031       3.57868494       0.93045343       0.00000000
Si       2.70870120      -0.27067464       2.72046827       0.00000000
Si      -0.77812443       1.24675515       3.65250089       0.00000000
