10
Lattice="16.28999089631971 0.0 0.0 0.0 16.28999089631971 0.0 0.0 0.0 34.33025523377368" Properties=species:S:1:pos:R:3:initial_magmoms:R:1 pbc="T T T"
Si       1.29888315       1.03695624       1.64461381       0.00000000
Si       1.28045916      -1.35747828      -1.49652532       0.00000000
Si       0.92330091       1.91200617      -1.35886092       0.00000000
Si      -1.37179719      -1.40354640       1.66381816       0.00000000
Si       3.06182020       0.27069093      -2.27925558       0.00000000
Si      -0.12887019       2.41862517       3.08791004       0.00000000
Si       2.58336738      -0.29949165       3.10515757       0.00000000
Si      -2.38071834      -3.27888378       0.49833796       0.00000000
Si       1.75332528      -3.68510751      -0.60764586       0.00000000
Si       2.83937862       2.97603639      -0.35167933       0.00000000
