10
Lattice="16.28999089631971 0.0 0.0 0.0 16.28999089631971 0.0 0.0 0.0 34.33025523377368" Properties=species:S:1:pos:R:3:initial_magmoms:R:1 pbc="T T T"
Si      -1.35220032       1.35590859      -1.36002815       0.00000000
Si       1.36151887      -1.35977517      -1.35875793       0.00000000
Si      -1.35086454      -1.36759437       1.37297066       0.00000000
Si       1.36781170       1.37292676       1.36967496       0.00000000
Si      -2.71187775       2.71129850       0.00260910       0.00000000
Si      -2.70904329      -2.71547784      -0.00020598       0.00000000
Si      -2.71090035      -0.00276962      -2.71696658       0.00000000
Si       0.00408946       2.71265057      -2.71634863       0.00000000
Si       2.71585970       2.71338362      -0.00133888       0.00000000
Si       0.00365555      -2.71728603      -2.71703524       0.00000000
