10
Lattice="16.28999089631971 0.0 0.0 0.0 16.28999089631971 0.0 0.0 0.0 34.33025523377368" Properties=species:S:1:pos:R:3:initial_magmoms:R:1 pbc="T T T"
Si      -0.59657238       0.69761925      -2.18951624       0.00000000
Si       2.09548044      -1.06069077       0.39105616       0.00000000
Si      -0.22323816       1.80296484       1.56776064       0.00000000
Si      -1.92652056      -0.98515404       1.06221302       0.00000000
Si      -2.07112689       0.75447135       2.65863944       0.00000000
Si      -1.81011222      -1.34245890      -2.63230812       0.00000000
Si       2.11933866      -0.42446853       2.76554392       0.00000000
Si      -0.73247985       3.68607581       0.20886539       0.00000000
Si      -1.63973511       2.82303649      -1.89427588       0.00000000
Si       1.72172268       1.84767926       2.91234017       0.00000000
