10
Lattice="16.28999089631971 0.0 0.0 0.0 16.28999089631971 0.0 0.0 0.0 34.33025523377368" Properties=species:S:1:pos:R:3:initial_magmoms:R:1 pbc="T T T"
Si       0.22156029       0.89076978      -2.14183149       0.00000000
Si      -1.78250719      -1.46608371      -0.62058837       0.00000000
Si       2.10628071      -1.13795424       0.32720185       0.00000000
Si      -0.09853821       1.23805629       2.24653883       0.00000000
Si      -0.76061268      -1.12865265       2.90389492       0.00000000
Si      -1.62357380      -2.73293583       1.33891503       0.00000000
Si       2.16560889       2.08818252       1.83024992       0.00000000
Si      -1.96425146       1.78341291      -2.40555666       0.00000000
Si       1.37762901       2.94241383      -1.77247207       0.00000000
Si      -1.04497092      -2.38742982      -2.69547583       0.00000000
