10
Lattice="16.28999089631971 0.0 0.0 0.0 16.28999089631971 0.0 0.0 0.0 34.33025523377368" Properties=species:S:1:pos:R:3:initial_magmoms:R:1 pbc="T T T"
Si       2.26414710       0.85012623      -0.41628891       0.00000000
Si      -1.54815925       1.90317699      -0.15077857       0.00000000
Si      -0.66207447      -2.36670894       0.65735609       0.00000000
Si       0.09853821      -1.23805629      -2.24653883       0.00000000
Si       0.51702831       0.42919263       2.63292607       0.00000000
Si       3.25664793      -1.23090498      -0.14586934       0.00000000
Si       2.20481892      -2.37601053      -1.91933698       0.00000000
Si      -3.70241468      -0.69514317       0.72103875       0.00000000
Si      -2.26235846       1.88312400      -2.54407932       0.00000000
Si      -2.54148272      -2.23001955       2.07818316       0.00000000
