10
Lattice="16.28999089631971 0.0 0.0 0.0 16.28999089631971 0.0 0.0 0.0 34.33025523377368" Properties=species:S:1:pos:R:3:initial_magmoms:R:1 pbc="T T T"
Si       1.35886945      -1.35563751       1.35916989       0.00000000
Si      -1.35467339       1.35962856       1.36157301       0.00000000
Si      -1.34454325      -1.36845774      -1.37344786       0.00000000
Si       1.35157153       1.37606517      -1.37671266       0.00000000
Si       0.21799767      -2.58735699      -2.78823279       0.00000000
Si      -2.71362145       2.71565703       0.00164785       0.00000000
Si       2.71284538       2.71687878       0.00264343       0.00000000
Si      -2.71090102      -2.72007162       0.00460026       0.00000000
Si      -2.71267663       0.00029322       2.71878608       0.00000000
Si       0.00088618      -2.71479366       2.71906072       0.00000000
