10
Lattice="16.28999089631971 0.0 0.0 0.0 16.28999089631971 0.0 0.0 0.0 34.33025523377368" Properties=species:S:1:pos:R:3:initial_magmoms:R:1 pbc="T T T"
Si       1.50333894      -1.81941381       0.26056678       0.00000000
Si       0.83168595       1.67912433       1.47654510       0.00000000
Si       0.01659951       0.74674989      -2.32645971       0.00000000
Si      -1.79693361      -0.84067803       1.62722068       0.00000000
Si      -0.82779264      -1.31108436      -3.13565860       0.00000000
Si       1.82270439       0.14636565       3.08526176       0.00000000
Si       3.28419432      -0.87154758       1.38502059       0.00000000
Si       2.77873191       2.48197698       0.11232866       0.00000000
Si      -2.89152713      -1.69777638      -1.82252561       0.00000000
Si       0.30115323      -3.54672396       1.38893424       0.00000000
