10
Lattice="16.28999089631971 0.0 0.0 0.0 16.28999089631971 0.0 0.0 0.0 34.33025523377368" Properties=species:S:1:pos:R:3:initial_magmoms:R:1 pbc="T T T"
Si       1.35003065       1.36404315       1.38995728       0.00000000
Si      -1.36281865      -1.34934957       1.39239473       0.00000000
Si      -1.36340509       1.43935182      -1.33809797       0.00000000
Si       1.49651848      -1.24655967      -1.57559481       0.00000000
Si       2.70237433      -2.68894143       0.01403422       0.00000000
Si      -2.70597802      -2.71534752       0.00005150       0.00000000
Si       2.73197326       2.70778896       0.02736123       0.00000000
Si      -0.00387059      -2.70537804       2.75231989       0.00000000
Si       2.71183882       0.00990432       2.75166762       0.00000000
Si      -2.72573779       2.73980649       0.02718271       0.00000000
