10
Lattice="16.28999089631971 0.0 0.0 0.0 16.28999089631971 0.0 0.0 0.0 34.33025523377368" Properties=species:S:1:pos:R:3:initial_magmoms:R:1 pbc="T T T"
Si      -1.64603317      -1.01949336       1.34540345       0.00000000
Si       1.28661873      -1.39338144      -1.42851705       0.00000000
Si       1.23694727       1.66386060       1.18909772       0.00000000
Si      -1.44113755       1.32450732      -1.44307309       0.00000000
Si      -0.48232444       3.38898530       1.36486872       0.00000000
Si      -2.76525391      -2.62348821      -0.02763587       0.00000000
Si       2.62882840      -0.02632464      -2.81511683       0.00000000
Si       2.75668861      -2.72533329       0.10264752       0.00000000
Si      -0.09027301       2.69210169      -2.81604375       0.00000000
Si      -2.91376984       2.59450830      -0.06412895       0.00000000
