10
Lattice="16.28999089631971 0.0 0.0 0.0 16.28999089631971 0.0 0.0 0.0 34.529650657227435" Properties=species:S:1:pos:R:3:initial_magmoms:R:1 pbc="T T T"
Si       1.40137983       0.12264741      -1.90199781       0.00000000
Si      -2.35209681      -0.11492595      -0.39930110       0.00000000
Si       1.12057281       1.98224865       0.91814392       0.00000000
Si       1.04989050      -1.94771222       1.19596965       0.00000000
Si       2.97299016       0.82194453      -0.28341953       0.00000000
Si      -0.31284945      -1.64455695       3.14844984       0.00000000
Si       3.23890812      -0.90353137       1.39820993       0.00000000
Si      -3.02686119       2.21539113      -0.47840858       0.00000000
Si       2.38736466       0.79413750       2.98716175       0.00000000
Si      -2.30285214      -0.00389331       3.19468506       0.00000000
