10
Lattice="16.28999089631971 0.0 0.0 0.0 16.28999089631971 0.0 0.0 0.0 34.529650657227435" Properties=species:S:1:pos:R:3:initial_magmoms:R:1 pbc="T T T"
Si      -0.23750820      -2.13727311      -0.91634838       0.00000000
Si      -1.36273995       0.30315527       1.95248019       0.00000000
Si       2.18901762       1.04418085       0.20224028       0.00000000
Si      -1.04989050       1.94771222      -1.19596965       0.00000000
Si       1.33747416       2.74184972       1.79119210       0.00000000
Si       0.29678751       1.30182187       3.33278445       0.00000000
Si       1.92309966       2.76965675      -1.47938918       0.00000000
Si       0.35148933       2.07035963      -3.09796746       0.00000000
Si       1.75827744      -3.26667510      -0.52999590       0.00000000
Si      -0.11054394      -2.02971024      -3.24544368       0.00000000
