10
Lattice="16.28999089631971 0.0 0.0 0.0 16.28999089631971 0.0 0.0 0.0 34.529650657227435" Properties=species:S:1:pos:R:3:initial_magmoms:R:1 pbc="T T T"
Si       1.34584722       1.34284986       1.35028274       0.00000000
Si       1.34936586      -1.34928441      -1.35466801       0.00000000
Si      -1.36391283       1.36264221      -1.35145675       0.00000000
Si      -1.35619137      -1.33379262       1.40045435       0.00000000
Si      -0.28095363       2.40106455       2.61027040       0.00000000
Si      -2.22058764       0.66881853       2.71883168       0.00000000
Si       2.67351480      -0.05374071       2.73789206       0.00000000
Si       2.70861975      -2.70658350       0.00652611       0.00000000
Si      -0.00498474      -2.70785412      -2.70999209       0.00000000
Si       2.70870120       0.00586440      -2.71002662       0.00000000
