10
Lattice="16.28999089631971 0.0 0.0 0.0 16.28999089631971 0.0 0.0 0.0 34.529650657227435" Properties=species:S:1:pos:R:3:initial_magmoms:R:1 pbc="T T T"
Si      -0.20127924       1.73589498       1.54261301       0.00000000
Si       1.29274182      -1.82808009       0.89152155       0.00000000
Si      -2.23257708      -0.89709030       0.23221203       0.00000000
Si       0.99028539       1.03953006      -2.26697642       0.00000000
Si       3.39535728      -1.31391882      -0.04426704       0.00000000
Si       1.90485486       1.83500334       2.58050582       0.00000000
Si       0.23447826      -3.68742069      -0.10351995       0.00000000
Si       2.89725795      -0.53908497      -2.25786059       0.00000000
Si      -0.38338515       3.74078673       0.23186673       0.00000000
Si      -2.06622360      -3.17496987      -0.32444078       0.00000000
