10
Lattice="16.28999089631971 0.0 0.0 0.0 16.28999089631971 0.0 0.0 0.0 34.529650657227435" Properties=species:S:1:pos:R:3:initial_magmoms:R:1 pbc="T T T"
Si      -0.51702831       2.26603674       0.32547667       0.00000000
Si      -2.04214698      -0.77763573      -0.98879163       0.00000000
Si       0.67675176      -0.80633871       2.15775908       0.00000000
Si       1.81291410      -0.43308594      -1.61536702       0.00000000
Si       1.00506042      -2.99711565       1.43505308       0.00000000
Si      -1.48351401      -3.06612009      -1.39392825       0.00000000
Si       1.46451987       3.48535953       0.17095640       0.00000000
Si      -1.62860904       2.39492322       2.44376833       0.00000000
Si      -1.87185132       2.97606897      -1.51395338       0.00000000
Si      -3.74453343      -0.76931154       0.67702324       0.00000000
