10
Lattice="16.28999089631971 0.0 0.0 0.0 16.28999089631971 0.0 0.0 0.0 34.529650657227435" Properties=species:S:1:pos:R:3:initial_magmoms:R:1 pbc="T T T"
Si      -0.46431387       2.30003397      -0.46539089       0.00000000
Si      -0.24276987      -1.64418228      -1.73325131       0.00000000
Si       1.81630242       0.22566537       1.63777678       0.00000000
Si      -1.19351943      -1.84362075       1.77030165       0.00000000
Si       3.23856603      -0.47675943      -0.13342264       0.00000000
Si       0.47227968      -0.97184511       3.26187086       0.00000000
Si       0.36549873      -3.54589317      -0.31401282       0.00000000
Si      -2.96797284      -0.23368005       2.06050492       0.00000000
Si      -1.04397723       3.18770865       1.74699412       0.00000000
Si      -2.46886353      -1.47958812      -2.46849158       0.00000000
