10
Lattice="16.28999089631971 0.0 0.0 0.0 16.28999089631971 0.0 0.0 0.0 34.529650657227435" Properties=species:S:1:pos:R:3:initial_magmoms:R:1 pbc="T T T"
Si       1.36910934      -1.21849200       1.46495232       0.00000000
Si       1.10770371       1.49524281      -1.50091294       0.00000000
Si      -0.81629190      -1.92614589      -1.18740215       0.00000000
Si      -1.36259334       1.49079564       1.44162753       0.00000000
Si       2.62396062      -2.66431095       0.01396380       0.00000000
Si       2.66271453       2.68407072      -0.04500252       0.00000000
Si      -0.00706986      -2.56893300       2.82280397       0.00000000
Si      -2.77202858      -2.65281021       0.02909125       0.00000000
Si      -2.31772491      -1.28586744      -2.81507765       0.00000000
Si       2.71080261       0.14669145       2.83202339       0.00000000
