10
Lattice="16.28999089631971 0.0 0.0 0.0 16.28999089631971 0.0 0.0 0.0 34.529650657227435" Properties=species:S:1:pos:R:3:initial_magmoms:R:1 pbc="T T T"
Si       1.39429368      -1.21316517       1.49876378       0.00000000
Si      -1.55501082      -1.18882791      -1.45591042       0.00000000
Si       1.90518066       0.89551017      -1.32362726       0.00000000
Si      -1.29969765       1.52889795       1.47843616       0.00000000
Si       2.61920394      -2.71526607      -0.00210976       0.00000000
Si      -2.66271453      -2.68407072       0.04500252       0.00000000
Si       0.04808808      -2.53737927       2.87702591       0.00000000
Si      -2.66857893       0.17449848       2.86842802       0.00000000
Si      -2.60672580       2.94119208       0.01465784       0.00000000
Si       3.67932456      -0.85696803      -1.10967413       0.00000000
