10
Lattice="16.28999089631971 0.0 0.0 0.0 16.28999089631971 0.0 0.0 0.0 34.529650657227435" Properties=species:S:1:pos:R:3:initial_magmoms:R:1 pbc="T T T"
Si       1.90697256      -1.57861503       0.00911583       0.00000000
Si      -1.85528439      -0.89811657      -1.49054226       0.00000000
Si       1.13968098       1.99632321      -1.22269561       0.00000000
Si      -0.99028539      -1.03953006       2.26697642       0.00000000
Si      -0.22848354      -1.95633126      -2.75052992       0.00000000
Si       2.49316821       0.77022378      -2.72321695       0.00000000
Si       1.09918404      -3.35292183      -1.36292060       0.00000000
Si      -1.37367054       2.70125667       2.49884316       0.00000000
Si       3.76760007      -0.61007679      -1.22300638       0.00000000
Si       2.40507189      -2.35344888       2.22270938       0.00000000
