10
Lattice="16.28999089631971 0.0 0.0 0.0 16.28999089631971 0.0 0.0 0.0 34.529650657227435" Properties=species:S:1:pos:R:3:initial_magmoms:R:1 pbc="T T T"
Si      -1.56468708      -1.75778874       0.01781731       0.00000000
Si      -1.02097575       2.12374359       0.19671553       0.00000000
Si       1.11158073      -0.12888648      -2.11829166       0.00000000
Si       1.00616814      -0.06770124       2.23020232       0.00000000
Si       0.95428449       3.22603902       0.80692386       0.00000000
Si      -0.74539782      -1.29834558       3.34523443       0.00000000
Si      -0.92947482      -3.02954904       1.84671581       0.00000000
Si      -3.56479771      -0.83036646       0.83893286       0.00000000
Si       1.62860904      -2.39492322      -2.44376833       0.00000000
Si      -2.61035847       0.11108151       2.83595632       0.00000000
