10
Lattice="16.28999089631971 0.0 0.0 0.0 16.28999089631971 0.0 0.0 0.0 34.529650657227435" Properties=species:S:1:pos:R:3:initial_magmoms:R:1 pbc="T T T"
Si       1.37108043      -1.31224095      -1.49171627       0.00000000
Si       1.65990213       1.20084993       1.35435724       0.00000000
Si      -1.33718094       1.41843546      -1.50141911       0.00000000
Si      -2.01170097      -0.92556522       1.10315390       0.00000000
Si      -0.06838542       2.44872909       2.37394934       0.00000000
Si       2.64518649       2.75796058      -0.19426392       0.00000000
Si      -2.76664473       2.74131378      -0.07019882       0.00000000
Si       2.73380409      -2.79749799      -0.01785184       0.00000000
Si       0.01844028      -2.65561209      -2.88668041       0.00000000
Si      -2.69850366       0.05996349      -2.88547187       0.00000000
