10
Lattice="16.28999089631971 0.0 0.0 0.0 16.28999089631971 0.0 0.0 0.0 34.529650657227435" Properties=species:S:1:pos:R:3:initial_magmoms:R:1 pbc="T T T"
Si      -0.13809033       2.13592851       0.96886801       0.00000000
Si       0.32141799      -1.74562011       1.54458120       0.00000000
Si       2.14532784       0.01412343      -1.00136043       0.00000000
Si      -1.77627789      -0.25712136      -1.57531260       0.00000000
Si       1.42604289      -1.26900729      -2.89800614       0.00000000
Si      -0.38765313       0.12698055      -3.44954856       0.00000000
Si      -2.75789700       1.86012252      -1.35701603       0.00000000
Si       0.66192786      -3.62017557       0.04129749       0.00000000
Si      -0.06520887       1.74242727       3.24188712       0.00000000
Si       3.55284900      -0.67004028       0.82456852       0.00000000
