10
Lattice="16.28999089631971 0.0 0.0 0.0 16.28999089631971 0.0 0.0 0.0 34.529650657227435" Properties=species:S:1:pos:R:3:initial_magmoms:R:1 pbc="T T T"
Si      -1.34923554      -1.32862122      -1.36468162       0.00000000
Si      -1.44489042       1.29881636       1.33422645       0.00000000
Si       1.36466217       1.38842765      -1.36046900       0.00000000
Si       1.33235910      -1.38048858       1.45646148       0.00000000
Si       1.87769943       0.58373423       2.69673269       0.00000000
Si       0.06320520       2.44304225       2.74887250       0.00000000
Si      -2.71257822      -2.68484517       0.01401905       0.00000000
Si       2.72448621      -2.67393087       0.01125667       0.00000000
Si       0.00232947      -2.68455195      -2.72249183       0.00000000
Si      -2.71261080       0.02942463      -2.72200841       0.00000000
