10
Lattice="16.28999089631971 0.0 0.0 0.0 16.28999089631971 0.0 0.0 0.0 34.529650657227435" Properties=species:S:1:pos:R:3:initial_magmoms:R:1 pbc="T T T"
Si       1.34457660       1.35368271      -1.35307965       0.00000000
Si       1.25507934      -1.45161819       1.34306604       0.00000000
Si      -1.40501250       1.29285585       1.37669794       0.00000000
Si      -1.36990755      -1.35998694      -1.35466801       0.00000000
Si      -0.50187861      -2.31492303       2.71265087       0.00000000
Si      -2.24810145      -0.61045146       2.76700057       0.00000000
Si       2.69967654       2.70738171       0.04347285       0.00000000
Si       2.70154989      -0.00412137      -2.71392847       0.00000000
Si      -2.73268008       2.68944642      -0.01091138       0.00000000
Si      -0.01205460       2.70972747      -2.71316882       0.00000000
