10
Lattice="16.28999089631971 0.0 0.0 0.0 16.28999089631971 0.0 0.0 0.0 34.529650657227435" Properties=species:S:1:pos:R:3:initial_magmoms:R:1 pbc="T T T"
Si       0.80299926      -0.83142531      -2.04512329       0.00000000
Si       0.85734270      -1.66430206       1.42023985       0.00000000
Si       1.39595526       1.93466556       0.12921002       0.00000000
Si      -2.32101549      -0.51331419      -0.36456426       0.00000000
Si      -1.16400195      -2.47754936       2.17509297       0.00000000
Si       3.15304353      -0.32912316      -1.74948026       0.00000000
Si      -2.66206293       0.31527666      -2.50122570       0.00000000
Si      -2.41694730      -2.83310891       0.16812496       0.00000000
Si       0.52347915      -3.20415245      -1.85593523       0.00000000
Si       3.63962583       1.15385328       0.11550175       0.00000000
