10
Lattice="16.28999089631971 0.0 0.0 0.0 16.28999089631971 0.0 0.0 0.0 34.529650657227435" Properties=species:S:1:pos:R:3:initial_magmoms:R:1 pbc="T T T"
Si       2.02134465       0.81324730      -0.75485311       0.00000000
Si      -1.54378701       1.59702599       0.76124110       0.00000000
Si       0.33041007      -1.32863262       1.91031946       0.00000000
Si      -1.25294535      -0.35555955      -2.00696801       0.00000000
Si      -1.15701354       1.96423517      -2.53965723       0.00000000
Si       2.65421115      -1.14400176      -1.90969793       0.00000000
Si       1.16400195       2.47754936      -2.17509297       0.00000000
Si      -3.12186447       0.19890090       1.79851239       0.00000000
Si      -0.14869512       0.18393039       3.71891451       0.00000000
Si       2.42046594      -2.31381924       1.67292798       0.00000000
