10
Lattice="16.28999089631971 0.0 0.0 0.0 16.28999089631971 0.0 0.0 0.0 34.529650657227435" Properties=species:S:1:pos:R:3:initial_magmoms:R:1 pbc="T T T"
Si      -0.34104744       0.82859085      -2.13666145       0.00000000
Si      -1.66734666       0.52903404       1.54834493       0.00000000
Si      -0.09593181      -2.31979472       0.53268922       0.00000000
Si       2.32101549       0.51331419       0.36456426       0.00000000
Si      -0.38677347      -0.36720918       3.30089833       0.00000000
Si       1.15701354      -1.96423517       2.53965723       0.00000000
Si      -0.85949298       3.09306375      -1.50207517       0.00000000
Si       3.12401475      -0.31811112      -1.68055904       0.00000000
Si       0.61686972      -3.42646208      -1.39486055       0.00000000
Si       3.17835819      -1.15098787       1.78480411       0.00000000
