10
Lattice="16.28999089631971 0.0 0.0 0.0 16.28999089631971 0.0 0.0 0.0 34.529650657227435" Properties=species:S:1:pos:R:3:initial_magmoms:R:1 pbc="T T T"
Si       1.39598784       0.68265200      -1.76646886       0.00000000
Si      -0.48729254      -2.32049814       0.44384438       0.00000000
Si       1.44523251       0.79368464       1.82751731       0.00000000
Si      -2.14222364       0.97326560      -0.87353159       0.00000000
Si      -2.17788245      -1.07167023       2.01888700       0.00000000
Si      -0.36931385      -0.01516110       3.17336096       0.00000000
Si       0.72122346       3.01296908      -1.84557633       0.00000000
Si       0.32449680      -0.53062232      -3.56076863       0.00000000
Si      -1.45710629       3.28841669      -0.81476209       0.00000000
Si      -2.04234965       0.07006655      -3.09434184       0.00000000
