10
Lattice="16.28999089631971 0.0 0.0 0.0 16.28999089631971 0.0 0.0 0.0 34.529650657227435" Properties=species:S:1:pos:R:3:initial_magmoms:R:1 pbc="T T T"
Si       1.91749590       0.76336569      -1.15915757       0.00000000
Si       1.42459308      -1.24893801       1.47456884       0.00000000
Si      -1.27019646       1.47149199       1.45738342       0.00000000
Si      -1.38367260      -1.20300021      -1.70429270       0.00000000
Si      -2.64534939      -2.64662001      -0.10820563       0.00000000
Si       2.74162329      -2.64829788       0.03213676       0.00000000
Si       2.70185940       2.71423980       0.04639061       0.00000000
Si      -2.76724746       2.66058054      -0.02718866       0.00000000
Si       0.09125658      -2.59139691       2.84773439       0.00000000
Si      -2.62557333       0.12142566       2.84303836       0.00000000
