10
Lattice="16.28999089631971 0.0 0.0 0.0 16.28999089631971 0.0 0.0 0.0 34.529650657227435" Properties=species:S:1:pos:R:3:initial_magmoms:R:1 pbc="T T T"
Si      -1.35278676       1.35920502      -1.35528955       0.00000000
Si      -1.35508365      -1.35778779       1.35687791       0.00000000
Si       1.35933534       1.35744570       1.35670526       0.00000000
Si       1.36000323      -1.35783666      -1.36419820       0.00000000
Si      -2.69448003      -0.00597843      -2.72236061       0.00000000
Si      -0.00658116       2.68341912      -2.73355168       0.00000000
Si      -2.71228500       2.71318095      -0.00075965       0.00000000
Si      -2.71264338      -0.00037467       2.71385941       0.00000000
Si      -2.71111212      -2.71608057      -0.00069059       0.00000000
Si       0.00289962       2.71443528       2.71413565       0.00000000
