10
Lattice="16.28999089631971 0.0 0.0 0.0 16.28999089631971 0.0 0.0 0.0 34.529650657227435" Properties=species:S:1:pos:R:3:initial_magmoms:R:1 pbc="T T T"
Si      -1.35479043      -1.34325711      -1.36930859       0.00000000
Si      -1.35348723       1.22609943       1.50052134       0.00000000
Si       1.35938421       1.36604682      -1.37224361       0.00000000
Si       1.27443186      -1.38030057       1.50021057       0.00000000
Si       0.49611195       2.06806437       2.73533686       0.00000000
Si       2.26396791       0.42933924       2.59055396       0.00000000
Si      -0.58619565      -2.34883881       2.73233278       0.00000000
Si      -2.49316821      -0.77022378       2.72321695       0.00000000
Si       2.71070487      -2.70861975       0.02707126       0.00000000
Si      -2.71621089       2.71135647       0.02665691       0.00000000
