10
Lattice="16.28999089631971 0.0 0.0 0.0 16.28999089631971 0.0 0.0 0.0 34.529650657227435" Properties=species:S:1:pos:R:3:initial_magmoms:R:1 pbc="T T T"
Si       1.39900964      -1.29942072       1.42169701       0.00000000
Si      -1.30314535       1.44684522       1.42328882       0.00000000
Si       1.95573667       0.72666432      -1.21649339       0.00000000
Si      -1.73859816      -1.00405044      -1.43836245       0.00000000
Si       0.45430366       1.36694277      -2.84416890       0.00000000
Si      -3.55130049       0.72440001      -1.20817243       0.00000000
Si      -2.72717310      -2.68726356      -0.01687810       0.00000000
Si       2.77202858       2.65281021      -0.02909125       0.00000000
Si       2.73314435      -2.69900865      -0.04466068       0.00000000
Si       0.05086064      -2.63140515       2.80113660       0.00000000
