10
Lattice="16.28999089631971 0.0 0.0 0.0 16.28999089631971 0.0 0.0 0.0 34.529650657227435" Properties=species:S:1:pos:R:3:initial_magmoms:R:1 pbc="T T T"
Si       1.55579274       0.14162526       1.76747022       0.00000000
Si      -1.50934995       1.58824242       0.94210752       0.00000000
Si       1.27630521       0.38514447      -1.98158870       0.00000000
Si      -1.48447512      -1.83241323      -0.58206665       0.00000000
Si       2.38720176      -2.05319160       1.68808650       0.00000000
Si       2.96049573      -1.98552294      -0.58213571       0.00000000
Si      -3.47657922       1.17654525      -0.30693424       0.00000000
Si       0.08636958       2.35937844      -2.84835247       0.00000000
Si       1.08590769      -1.76443506      -3.17579733       0.00000000
Si       0.42024942       0.16198776       3.79778028       0.00000000
