10
Lattice="16.28999089631971 0.0 0.0 0.0 16.28999089631971 0.0 0.0 0.0 34.529650657227435" Properties=species:S:1:pos:R:3:initial_magmoms:R:1 pbc="T T T"
Si       1.35612621       1.35684297       1.35677432       0.00000000
Si       1.35705474      -1.35705474      -1.35739586       0.00000000
Si      -1.35752715       1.35786924      -1.35708509       0.00000000
Si      -1.35726651      -1.35814617       1.35708509       0.00000000
Si       2.70914103       0.00241092       2.71579307       0.00000000
Si       0.00456120       2.71277370       2.71458453       0.00000000
Si       2.71290402       0.00159642      -2.71458453       0.00000000
Si       0.00048870       2.71354358      -2.71406659       0.00000000
Si       2.71394658      -2.71414206      -0.00010359       0.00000000
Si       2.71432125       2.71502345      -0.00006906       0.00000000
