10
Lattice="16.28999089631971 0.0 0.0 0.0 16.28999089631971 0.0 0.0 0.0 34.529650657227435" Properties=species:S:1:pos:R:3:initial_magmoms:R:1 pbc="T T T"
Si      -1.90518066      -0.89551017       1.32362726       0.00000000
Si      -0.36312039       0.27541503      -2.44546029       0.00000000
Si       1.77414390      -1.75247820       0.21395313       0.00000000
Si       0.91109970       1.96643106       1.31699411       0.00000000
Si      -0.51088698      -2.10867534       2.82239104       0.00000000
Si       2.22068538       0.65133936       2.82551597       0.00000000
Si       3.53877444      -0.69142905       1.38484146       0.00000000
Si       0.71402328      -3.61077624       1.32151750       0.00000000
Si       2.01411189       3.34746468      -0.32844622       0.00000000
Si      -0.92432718      -1.92301821      -3.31408866       0.00000000
