10
Lattice="16.28999089631971 0.0 0.0 0.0 16.28999089631971 0.0 0.0 0.0 34.529650657227435" Properties=species:S:1:pos:R:3:initial_magmoms:R:1 pbc="T T T"
Si      -1.10301219      -1.38103362       1.64544033       0.00000000
Si       1.45891611      -1.50809562      -1.39841710       0.00000000
Si       1.54627938       1.29853847       1.59895649       0.00000000
Si      -1.94649210       1.23880630      -1.38477788       0.00000000
Si      -0.33961392      -0.18572229      -3.75306436       0.00000000
Si       1.98848772       0.11259406      -3.26588524       0.00000000
Si      -2.01411189      -3.34746468       0.32844622       0.00000000
Si       2.87912718      -2.75804361       0.11508739       0.00000000
Si      -2.51170623      -0.00022341       3.13219124       0.00000000
Si       2.70392823       2.20995746      -2.01142233       0.00000000
