10
Lattice="16.28999089631971 0.0 0.0 0.0 16.28999089631971 0.0 0.0 0.0 34.529650657227435" Properties=species:S:1:pos:R:3:initial_magmoms:R:1 pbc="T T T"
Si      -1.35304740       1.35827486       1.36053806       0.00000000
Si      -1.35718506      -1.35652425      -1.35832816       0.00000000
Si       1.36000323      -1.35787679       1.35611826       0.00000000
Si       1.35765634       1.35886130      -1.35781021       0.00000000
Si       2.71329565      -2.71424862      -0.00172648       0.00000000
Si       0.00055386      -2.71403685      -2.71548230       0.00000000
Si      -2.71446786       0.00067929      -2.71520607       0.00000000
Si      -2.71538010      -2.71470474      -0.00148478       0.00000000
Si       2.71554367       0.00094319      -2.71572401       0.00000000
Si       2.71514457       2.71622555      -0.00086324       0.00000000
