10
Lattice="16.28999089631971 0.0 0.0 0.0 16.28999089631971 0.0 0.0 0.0 34.529650657227435" Properties=species:S:1:pos:R:3:initial_magmoms:R:1 pbc="T T T"
Si       1.17371079      -0.03339450       2.02029646       0.00000000
Si      -0.54534033      -1.96422281      -1.24027122       0.00000000
Si       1.98847143       0.66176496      -1.38063432       0.00000000
Si      -1.81449423       1.85930802       0.05213980       0.00000000
Si       3.07918860       0.90301986       0.69076605       0.00000000
Si      -1.87769943      -0.58373423      -2.69673269       0.00000000
Si       0.83098548       2.17660464      -2.69276178       0.00000000
Si      -3.32258985       0.71508213      -1.36250625       0.00000000
Si      -0.56347110       3.43075545      -1.21040305       0.00000000
Si       0.59248359       1.66900824       3.53994723       0.00000000
