10
Lattice="16.28999089631971 0.0 0.0 0.0 16.28999089631971 0.0 0.0 0.0 34.529650657227435" Properties=species:S:1:pos:R:3:initial_magmoms:R:1 pbc="T T T"
Si      -0.39376188      -1.02887640       2.07481881       0.00000000
Si       0.58122720      -1.70240274      -1.51965077       0.00000000
Si       2.15318681       0.98420922      -0.12057761       0.00000000
Si      -1.56124989       1.88428059      -0.17651567       0.00000000
Si      -2.74380615      -1.53117855       1.77917577       0.00000000
Si       2.27114270       1.65954375      -2.40492245       0.00000000
Si       0.77185278      -3.06801462       1.95099541       0.00000000
Si       0.36696483      -3.78179585      -0.29222460       0.00000000
Si       2.48670501      -0.76598838      -2.84918119       0.00000000
Si      -3.44328246       1.07017155      -1.38470882       0.00000000
