10
Lattice="16.28999089631971 0.0 0.0 0.0 16.28999089631971 0.0 0.0 0.0 34.529650657227435" Properties=species:S:1:pos:R:3:initial_magmoms:R:1 pbc="T T T"
Si       0.60444045      -1.53486009      -1.72044081       0.00000000
Si       0.39698730       2.21794866      -0.91821298       0.00000000
Si       2.07976059      -0.06846687       1.26288815       0.00000000
Si      -2.21803011      -0.38426481       0.93164503       0.00000000
Si       3.29659101       0.38719701      -0.79407882       0.00000000
Si       1.07779527      -3.48893423      -0.49726178       0.00000000
Si       2.52967410      -0.66459942      -2.81655065       0.00000000
Si       2.76633522       2.64095109      -0.78005977       0.00000000
Si      -3.85592445       0.54721368      -0.53047932       0.00000000
Si       2.15518329       1.80125046       2.81682689       0.00000000
