10
Lattice="16.28999089631971 0.0 0.0 0.0 16.28999089631971 0.0 0.0 0.0 34.529650657227435" Properties=species:S:1:pos:R:3:initial_magmoms:R:1 pbc="T T T"
Si       0.96743052      -1.83858714       1.24030574       0.00000000
Si       0.07542270       1.86971733       1.55393874       0.00000000
Si       1.21683042       0.45566388      -2.05696697       0.00000000
Si      -2.07976059       0.06846687      -1.26288815       0.00000000
Si       0.68657463       2.70941796      -2.04294792       0.00000000
Si      -0.76629789      -3.35719700       0.65578749       0.00000000
Si      -1.68277329       2.28641553      -2.18110113       0.00000000
Si      -1.47532014      -1.46639322      -2.98332895       0.00000000
Si       0.80984106       3.59054406       0.14630221       0.00000000
Si       0.86755653      -0.93538809       3.46111600       0.00000000
