10
Lattice="16.28999089631971 0.0 0.0 0.0 16.28999089631971 0.0 0.0 0.0 34.529650657227435" Properties=species:S:1:pos:R:3:initial_magmoms:R:1 pbc="T T T"
Si       0.09987399      -0.90319905      -2.22081025       0.00000000
Si       0.68511735       2.31515109       0.05876950       0.00000000
Si       2.14222364      -0.97326560       0.87353159       0.00000000
Si      -2.51035416      -0.10806786       0.27792931       0.00000000
Si      -1.76513553      -0.19955250       2.62743165       0.00000000
Si      -0.79213383       2.80510542      -1.90717726       0.00000000
Si      -0.03565881      -2.04493583       2.89241859       0.00000000
Si       2.86344710       2.03970348      -0.97204474       0.00000000
Si       3.53821148      -0.29061360      -0.89293727       0.00000000
Si      -0.86755653       0.93538809      -3.46111600       0.00000000
