10
Lattice="16.28999089631971 0.0 0.0 0.0 16.28999089631971 0.0 0.0 0.0 34.529650657227435" Properties=species:S:1:pos:R:3:initial_magmoms:R:1 pbc="T T T"
Si       0.74521863      -0.09148464       2.34950233       0.00000000
Si       2.51035416       0.10806786      -0.27792931       0.00000000
Si      -1.48727700       2.05001505      -0.02796903       0.00000000
Si      -0.71544051      -2.09736340      -1.25446291       0.00000000
Si       2.61022815      -0.79513119      -2.49873957       0.00000000
Si      -1.15764885      -0.91141898       3.61037882       0.00000000
Si       0.87649974      -2.31374105      -3.08325782       0.00000000
Si      -1.24501212      -3.71805308       0.61300523       0.00000000
Si      -3.01441563       1.78336404      -1.90510548       0.00000000
Si      -0.28046493       3.82901337      -1.15919555       0.00000000
