10
Lattice="16.28999089631971 0.0 0.0 0.0 16.28999089631971 0.0 0.0 0.0 34.529650657227435" Properties=species:S:1:pos:R:3:initial_magmoms:R:1 pbc="T T T"
Si      -0.33601383       0.31561875      -2.22666100       0.00000000
Si      -1.91749590      -0.76336569       1.15915757       0.00000000
Si       0.78436350       1.95087411       1.20554818       0.00000000
Si       1.81270233      -1.72845045      -0.23019001       0.00000000
Si      -0.49290282      -2.01230370       2.63372640       0.00000000
Si       2.24815514       0.72244521       2.63146126       0.00000000
Si      -0.53313912       2.59362864      -2.57817304       0.00000000
Si       0.82412739      -3.41166357       1.19129433       0.00000000
Si       3.55130049      -0.72440001       1.20817243       0.00000000
Si      -3.30116850      -1.96636590      -0.54513513       0.00000000
