10
Lattice="16.28999089631971 0.0 0.0 0.0 16.28999089631971 0.0 0.0 0.0 34.529650657227435" Properties=species:S:1:pos:R:3:initial_magmoms:R:1 pbc="T T T"
Si       1.16885541      -0.52937613       1.95216942       0.00000000
Si       0.78608765       1.74195486      -1.46972087       0.00000000
Si      -2.32411059       0.27163575       0.58396578       0.00000000
Si       0.36715186      -2.15778969      -1.18699193       0.00000000
Si      -2.82962187       1.58877999      -1.27459371       0.00000000
Si      -1.08004329       3.14691849      -1.23882097       0.00000000
Si      -0.37776510      -2.02821903       2.91851676       0.00000000
Si       3.16896605      -1.45679841       1.13105387       0.00000000
Si       0.95742587      -1.59335748      -3.43584028       0.00000000
Si       2.61772874      -2.86324443      -0.65350853       0.00000000
