10
Lattice="16.28999089631971 0.0 0.0 0.0 16.28999089631971 0.0 0.0 0.0 34.529650657227435" Properties=species:S:1:pos:R:3:initial_magmoms:R:1 pbc="T T T"
Si      -1.84679730       1.40064678      -0.13435495       0.00000000
Si      -0.73441836      -1.72082673       1.40763653       0.00000000
Si      -0.12326643      -0.88112610      -2.18925013       0.00000000
Si       1.30580870       1.71455508       1.03620087       0.00000000
Si       2.37779333       1.55916477      -1.15857402       0.00000000
Si       1.42335408       0.61771680      -3.15559748       0.00000000
Si      -2.49261435      -1.30412853      -2.32740334       0.00000000
Si      -0.80984106      -3.59054406      -0.14630221       0.00000000
Si      -2.73310362      -0.80498664       2.43354755       0.00000000
Si       0.40698936      -3.13488018      -2.20326918       0.00000000
