10
Lattice="16.28999089631971 0.0 0.0 0.0 16.28999089631971 0.0 0.0 0.0 34.529650657227435" Properties=species:S:1:pos:R:3:initial_magmoms:R:1 pbc="T T T"
Si       1.35707103       1.35474156       1.35791380       0.00000000
Si      -1.35689184       1.35708732      -1.35729227       0.00000000
Si      -1.35922131      -1.35716877       1.35698150       0.00000000
Si       1.35819504      -1.35793440      -1.35729227       0.00000000
Si      -2.71176372      -0.00197109       2.71468812       0.00000000
Si      -2.71394658       2.71414206       0.00010359       0.00000000
Si       2.71502409      -0.00211770      -2.71337599       0.00000000
Si       2.71552006       2.71425609       0.00017265       0.00000000
Si      -2.71467963      -2.71515204       0.00037983       0.00000000
Si      -2.71533123      -0.00236205      -2.71472265       0.00000000
