10
Lattice="16.28999089631971 0.0 0.0 0.0 16.28999089631971 0.0 0.0 0.0 34.529650657227435" Properties=species:S:1:pos:R:3:initial_magmoms:R:1 pbc="T T T"
Si       1.91948328      -1.24546824       0.37188455       0.00000000
Si       0.95211792       1.38028428      -1.67068355       0.00000000
Si      -0.63203571       1.35216774       1.89964979       0.00000000
Si      -1.47810573      -1.91443338       0.15434762       0.00000000
Si       1.26201888      -1.33082784       2.68740968       0.00000000
Si      -0.94688883      -0.64638720       3.18429163       0.00000000
Si      -2.43276489       2.44833813       0.85170884       0.00000000
Si       2.56055994       2.56005495      -0.35707132       0.00000000
Si       1.72027287      -3.11438736      -0.99093247       0.00000000
Si       2.16209025      -0.04466718      -3.15038350       0.00000000
