10
Lattice="16.28999089631971 0.0 0.0 0.0 16.28999089631971 0.0 0.0 0.0 34.529650657227435" Properties=species:S:1:pos:R:3:initial_magmoms:R:1 pbc="T T T"
Si       1.35494871      -1.35322221      -1.35819004       0.00000000
Si       1.35677482       1.35797854       1.35684338       0.00000000
Si      -1.35821499      -1.35700149       1.35708509       0.00000000
Si      -1.35598326       1.35643262      -1.36419820       0.00000000
Si       2.71188127      -2.71550604      -0.00041436       0.00000000
Si       2.71380349       0.00055511       2.71455000       0.00000000
Si      -0.00080853      -2.71439832       2.71437736       0.00000000
Si       2.71298899       2.71661341       0.00086324       0.00000000
Si      -2.71595391       0.00051110       2.71423924       0.00000000
Si      -2.71737114      -2.71291593      -0.00027624       0.00000000
