10
Lattice="16.28999089631971 0.0 0.0 0.0 16.28999089631971 0.0 0.0 0.0 34.529650657227435" Properties=species:S:1:pos:R:3:initial_magmoms:R:1 pbc="T T T"
Si       1.35288687      -1.35659862       1.36140130       0.00000000
Si       1.35428544       1.36265850      -1.36399448       0.00000000
Si      -1.36317978       1.36125756       1.36029635       0.00000000
Si      -1.37668419      -1.36190916      -1.38254036       0.00000000
Si      -0.16586478       2.58618411      -2.73301647       0.00000000
Si       2.70981285      -2.71077003       0.00124307       0.00000000
Si      -2.71968066      -2.70804960      -0.00158836       0.00000000
Si       2.71064201       0.00254124       2.71755408       0.00000000
Si      -0.00394218      -2.71241532       2.71748503       0.00000000
Si       2.70914007       2.72095128       0.00238255       0.00000000
