10
Lattice="16.28999089631971 0.0 0.0 0.0 16.28999089631971 0.0 0.0 0.0 34.529650657227435" Properties=species:S:1:pos:R:3:initial_magmoms:R:1 pbc="T T T"
Si       1.35485463       1.35829278       1.36637702       0.00000000
Si      -1.35428544      -1.36265850       1.36399448       0.00000000
Si       1.39842875      -1.26998469      -1.41521233       0.00000000
Si      -1.52015022       1.22352561      -1.36902200       0.00000000
Si      -0.14538825      -2.61237843      -2.63248334       0.00000000
Si       2.71558277       2.69933553      -0.00977190       0.00000000
Si       2.71178720      -0.00399105       2.72415270       0.00000000
Si      -0.00009408       2.71151499       2.72456706       0.00000000
Si      -2.71746522      -0.00140094       2.72429082       0.00000000
Si      -0.00139857      -2.71925712       2.72539577       0.00000000
