10
Lattice="16.28999089631971 0.0 0.0 0.0 16.28999089631971 0.0 0.0 0.0 34.529650657227435" Properties=species:S:1:pos:R:3:initial_magmoms:R:1 pbc="T T T"
Si       1.64673981       1.67018112      -0.41570270       0.00000000
Si      -0.11795589      -0.67533453       2.28434485       0.00000000
Si      -1.83013982       1.24090704      -0.92387585       0.00000000
Si       0.21556231      -2.42553213      -0.44425873       0.00000000
Si       1.69451838      -2.26471725       1.63394398       0.00000000
Si       3.28798989      -0.73057392       0.84155712       0.00000000
Si      -2.74119065       2.16516906       1.08288498       0.00000000
Si       2.54958048       0.85356342      -2.48295951       0.00000000
Si      -2.27114270      -1.65954375       2.40492245       0.00000000
Si      -0.66939612       2.82320361      -2.31252106       0.00000000
