10
Lattice="16.28999089631971 0.0 0.0 0.0 16.28999089631971 0.0 0.0 0.0 34.529650657227435" Properties=species:S:1:pos:R:3:initial_magmoms:R:1 pbc="T T T"
Si      -1.59347151      -1.53414333       0.79238687       0.00000000
Si      -0.16635348       2.27787957       0.55665281       0.00000000
Si       2.30070186      -0.51245082       0.22092083       0.00000000
Si      -1.64125008       2.40075504      -1.25725981       0.00000000
Si      -3.28798989       0.73057392      -0.84155712       0.00000000
Si       0.05725935      -3.17471086      -1.82099120       0.00000000
Si      -3.40594578       0.05523939       1.44278773       0.00000000
Si      -3.07242758      -1.69495821      -1.28581585       0.00000000
Si      -0.73840941       1.58413734      -3.32451662       0.00000000
Si       2.43787995      -1.98661437       2.05572390       0.00000000
