10
Lattice="16.28999089631971 0.0 0.0 0.0 16.28999089631971 0.0 0.0 0.0 34.529650657227435" Properties=species:S:1:pos:R:3:initial_magmoms:R:1 pbc="T T T"
Si       0.28510758       1.96361289      -1.28716251       0.00000000
Si      -1.84308318      -1.25649657      -0.84960253       0.00000000
Si       2.04024105      -1.23501006       0.21263371       0.00000000
Si       0.05136237       0.79379541       2.29546340       0.00000000
Si       2.47651983       1.51560531      -1.88307555       0.00000000
Si       3.55429881       0.56860245       0.02606990       0.00000000
Si      -2.03869350       1.77898203       2.53285488       0.00000000
Si      -3.03989319      -1.92679749       1.02957117       0.00000000
Si       2.06972595      -2.27478447       2.34066274       0.00000000
Si      -0.34775892       3.92086195      -0.13231770       0.00000000
