10
Lattice="16.28999089631971 0.0 0.0 0.0 16.28999089631971 0.0 0.0 0.0 34.529650657227435" Properties=species:S:1:pos:R:3:initial_magmoms:R:1 pbc="T T T"
Si       0.56962872      -2.26716075      -0.00997907       0.00000000
Si       1.73372841       1.51860986       0.58451825       0.00000000
Si      -0.23566743      -0.06327036      -2.41593742       0.00000000
Si      -1.59194025       0.21637765       1.82879491       0.00000000
Si       0.76629789       3.35719700      -0.65578749       0.00000000
Si       2.51200012      -2.28973869      -1.35701603       0.00000000
Si       1.88981919      -0.86705154      -3.09955582       0.00000000
Si      -1.03881330      -3.44693142      -1.32359131       0.00000000
Si      -1.84720455      -1.80330300      -2.84849059       0.00000000
Si      -0.87649974       2.31374105       3.08325782       0.00000000
