10
Lattice="16.28999089631971 0.0 0.0 0.0 16.28999089631971 0.0 0.0 0.0 34.529650657227435" Properties=species:S:1:pos:R:3:initial_magmoms:R:1 pbc="T T T"
Si      -0.95169438      -0.04610070       2.09273971       0.00000000
Si       1.04884794      -1.93228722      -0.80858128       0.00000000
Si      -1.87957767       0.43533396      -1.35722321       0.00000000
Si       0.99572625       2.19931290      -0.15676470       0.00000000
Si      -1.30784917       2.23234902       2.16856686       0.00000000
Si       1.05736761      -1.12948344      -3.04271999       0.00000000
Si      -0.80759304       0.27994365      -3.55199809       0.00000000
Si       3.05339760       1.84733487       1.19451940       0.00000000
Si      -0.26422380      -3.76544979      -0.05065503       0.00000000
Si       0.54973863      -0.68637915       3.72041521       0.00000000
