10
Lattice="16.28999089631971 0.0 0.0 0.0 16.28999089631971 0.0 0.0 0.0 34.529650657227435" Properties=species:S:1:pos:R:3:initial_magmoms:R:1 pbc="T T T"
Si      -1.35682905      -1.35581670       1.35608373       0.00000000
Si      -1.35288687       1.35659862      -1.36140130       0.00000000
Si       1.35692597      -1.35417141      -1.36015823       0.00000000
Si       1.35775514       1.35913986       1.35615279       0.00000000
Si       0.00143408      -2.71300176       2.71337599       0.00000000
Si       2.71444009       0.00099369       2.71299617       0.00000000
Si       2.71486363      -2.71319724      -0.00107042       0.00000000
Si      -2.71502409       0.00211770       2.71337599       0.00000000
Si       2.71318576       2.71526607      -0.00124307       0.00000000
Si       0.00049596       2.71637379       2.71354864       0.00000000
