10
Lattice="16.28999089631971 0.0 0.0 0.0 16.28999089631971 0.0 0.0 0.0 34.529650657227435" Properties=species:S:1:pos:R:3:initial_magmoms:R:1 pbc="T T T"
Si       1.87957767      -0.43533396       1.35722321       0.00000000
Si      -1.30580870      -1.71455508      -1.03620087       0.00000000
Si       1.07198463      -0.15539031      -2.19477488       0.00000000
Si      -0.77457907       2.31669864      -0.17976146       0.00000000
Si      -2.95339559       1.55501082       0.19226120       0.00000000
Si      -3.15260600      -0.31390830      -1.17055581       0.00000000
Si       2.87530392       1.76397894       1.20045851       0.00000000
Si       0.92788329      -0.48143466       3.44996291       0.00000000
Si       2.93694528      -1.56481740      -1.68549678       0.00000000
Si       1.57405872       2.05340337      -2.73744317       0.00000000
