10
Lattice="16.28999089631971 0.0 0.0 0.0 16.28999089631971 0.0 0.0 0.0 34.529650657227435" Properties=species:S:1:pos:R:3:initial_magmoms:R:1 pbc="T T T"
Si       1.86844671      -0.88207092      -1.10857505       0.00000000
Si      -1.46412891      -0.74963322      -1.74633806       0.00000000
Si       0.47254032       2.35929699      -0.28887522       0.00000000
Si      -0.16288371      -1.03905765       2.19156362       0.00000000
Si       1.59843996       0.15653061      -3.23270223       0.00000000
Si       0.95542479       2.37527748      -2.64400589       0.00000000
Si      -1.58843790       3.31376067       0.50050757       0.00000000
Si      -1.96620300      -2.95842690      -1.20366976       0.00000000
Si      -3.54538655       0.24713559      -1.42310582       0.00000000
Si       3.83567598      -0.47037375       0.14046670       0.00000000
