10
Lattice="16.28999089631971 0.0 0.0 0.0 16.28999089631971 0.0 0.0 0.0 34.529650657227435" Properties=species:S:1:pos:R:3:initial_magmoms:R:1 pbc="T T T"
Si       1.36151820       1.36564513       1.39658703       0.00000000
Si      -1.30728716       1.37894428      -1.44447968       0.00000000
Si       1.42946379      -1.32287832      -1.43122029       0.00000000
Si      -0.95677686      -1.77746706       1.37635264       0.00000000
Si       2.69825931      -0.29258469       2.44414816       0.00000000
Si      -1.76816873       2.84539778       1.93176239       0.00000000
Si      -2.64734396       0.03091969      -2.82062515       0.00000000
Si      -2.85888590       2.60414288      -0.13963799       0.00000000
Si       2.79244809       2.69686556      -0.03687769       0.00000000
Si       0.06814107      -2.68135029      -2.81527305       0.00000000
