10
Lattice="16.290000149 0.0 0.0 0.0 16.290000149 0.0 0.0 0.0 29.1751946751" Properties=species:S:1:pos:R:3:initial_magmoms:R:1 pbc="T T T"
Si       1.34464177       1.35542738      -1.36539911       0.00000000
Si      -1.35671266      -1.36252656      -1.35037389       0.00000000
Si       1.38929266      -1.34916876       1.33275207       0.00000000
Si      -1.38303730       1.35513416       1.33531949       0.00000000
Si       0.02629206      -2.69954462       2.68335936       0.00000000
Si      -0.02630835       2.72183259       2.67361484       0.00000000
Si      -2.70248659      -0.00151823      -2.70594096       0.00000000
Si       2.70446582      -0.00176584      -2.70515323       0.00000000
Si       2.71793765       2.70298506      -0.02231902       0.00000000
Si       2.71000442      -2.71660025      -0.05120247       0.00000000
