10
Lattice="16.290000149 0.0 0.0 0.0 16.290000149 0.0 0.0 0.0 29.1751946751" Properties=species:S:1:pos:R:3:initial_magmoms:R:1 pbc="T T T"
H       -1.03389373      -1.10796436       0.21245377       0.00000000
Si       1.48637455      -1.08023878      -1.42573341       0.00000000
Si       1.15972909      -0.16260678       2.02079068       0.00000000
Si      -1.26122068       1.64421487      -1.15352885       0.00000000
H       -1.54834822       0.43122888       2.03499900       0.00000000
Si       0.00526167      -2.22281939       2.61258033       0.00000000
Si      -2.55306656      -0.02534724      -2.33185661       0.00000000
Si      -2.00306729      -0.85343311       2.69529201       0.00000000
Si       0.06476904      -2.51708195      -2.59396656       0.00000000
Si       3.05527098      -2.15495525      -0.06158884       0.00000000
