10
Lattice="16.290000149 0.0 0.0 0.0 16.290000149 0.0 0.0 0.0 29.1751946751" Properties=species:S:1:pos:R:3:initial_magmoms:R:1 pbc="T T T"
Si      -1.37165059      -1.40644603      -1.31196766       0.00000000
Si      -1.34669431       1.27917226       1.46045190       0.00000000
Si       1.33915204      -1.33661080       1.42173641       0.00000000
Si       1.34118829       1.41812596      -1.36046559       0.00000000
Si       2.67175550      -0.02213811      -2.67452511       0.00000000
Si       0.05929560      -2.77825953      -2.59731879       0.00000000
Si      -2.68115483      -2.69583212       0.15812956       0.00000000
Si      -2.77979079       2.59913468       0.17764776       0.00000000
Si      -2.71992503      -0.04310334      -2.68735636       0.00000000
Si       2.68781744       2.75107152       0.02844581       0.00000000
