10
Lattice="16.290000149 0.0 0.0 0.0 16.290000149 0.0 0.0 0.0 29.1751946751" Properties=species:S:1:pos:R:3:initial_magmoms:R:1 pbc="T T T"
Si       1.42160551       1.43684317       1.16823315       0.00000000
Si       1.43757785      -1.24530535      -1.36583674       0.00000000
Si      -1.29055897       1.41519376      -1.35924314       0.00000000
Si      -1.63885546      -1.05639022       1.43142258       0.00000000
H        0.24708346      -2.69503391       1.68936047       0.00000000
H       -1.09866277       1.40911759       2.80642033       0.00000000
Si      -0.06476904       2.51708195       2.59396656       0.00000000
Si      -2.61783560       2.49173471       0.26210995       0.00000000
Si      -3.29615121       0.64070200       1.69087758       0.00000000
Si       0.07531584      -2.65474874      -2.67921648       0.00000000
