10
Lattice="16.290000149 0.0 0.0 0.0 16.290000149 0.0 0.0 0.0 29.1751946751" Properties=species:S:1:pos:R:3:initial_magmoms:R:1 pbc="T T T"
Si       1.38443824      -1.34399017      -1.33488186       0.00000000
Si      -1.29637450       1.30318372      -1.46121045       0.00000000
Si       1.38868993       1.35790183       1.33056393       0.00000000
Si      -1.34936587      -1.39067731       1.34579338       0.00000000
Si      -2.77966047       0.05193252       2.46982611       0.00000000
Si      -2.65836512       2.67239081      -0.19839132       0.00000000
Si       2.71241534      -0.01642032       2.66445383       0.00000000
Si       0.01936881      -2.68291415      -2.70880012       0.00000000
Si      -2.70633917      -2.70005123      -0.04530908       0.00000000
Si       2.72792342       0.02769300      -2.69876386       0.00000000
