10
Lattice="16.290000149 0.0 0.0 0.0 16.290000149 0.0 0.0 0.0 29.1751946751" Properties=species:S:1:pos:R:3:initial_magmoms:R:1 pbc="T T T"
Si       1.34304535       1.37922544      -1.31302964       0.00000000
Si      -1.36775728       1.36539523       1.34261328       0.00000000
Si       1.54554634      -1.32007645       1.18883083       0.00000000
Si      -1.40993209      -1.32589198      -1.35262038       0.00000000
Si       2.62866845      -2.74173734      -0.30809006       0.00000000
Si       2.57243537       2.81014394       0.11375408       0.00000000
Si       2.64886805       0.03399723      -2.74276005       0.00000000
Si      -0.05685210       2.72147910      -2.67174763       0.00000000
Si      -2.78536197      -2.64565892       0.01353729       0.00000000
Si      -2.70958088       0.07802910       2.72274587       0.00000000
