10
Lattice="16.290000149 0.0 0.0 0.0 16.290000149 0.0 0.0 0.0 29.1751946751" Properties=species:S:1:pos:R:3:initial_magmoms:R:1 pbc="T T T"
Si      -1.52629156       1.77236831      -0.09627814       0.00000000
Si       1.09882567      -1.15121431      -1.74079634       0.00000000
Si      -1.68493988      -1.50614083       0.72736678       0.00000000
Si       1.84060712       0.82479529       1.28187053       0.00000000
H       -0.80659936       0.57363607       2.49042379       0.00000000
H       -1.44850681       0.99898426       2.57722000       0.00000000
Si       2.42351219      -2.56673387      -0.35865067       0.00000000
H        1.32827032       3.18132300      -0.94221291       0.00000000
H        0.75494377       3.31226202       1.38973122       0.00000000
Si       2.51892272       2.67582800      -0.14689711       0.00000000
