10
Lattice="16.290000149 0.0 0.0 0.0 16.290000149 0.0 0.0 0.0 29.1751946751" Properties=species:S:1:pos:R:3:initial_magmoms:R:1 pbc="T T T"
Si      -0.92403397       1.05005341      -1.83135614       0.00000000
Si       1.07297344       1.75668104       1.06932924       0.00000000
Si       1.33325506      -1.54510651      -1.15778843       0.00000000
Si      -1.93657151      -1.02734515       0.90746526       0.00000000
H        0.51253227      -1.28324476       2.39872616       0.00000000
Si       0.69092407      -2.67021773       1.78700985       0.00000000
Si      -1.70155568      -0.98228701      -2.73240286       0.00000000
Si      -0.48187449      -2.86146559      -1.77020494       0.00000000
Si      -2.22220037       2.54453060      -0.50073387       0.00000000
Si      -1.20883204      -3.21625365       0.49685357       0.00000000
