10
Lattice="16.290000149 0.0 0.0 0.0 16.290000149 0.0 0.0 0.0 29.1751946751" Properties=species:S:1:pos:R:3:initial_magmoms:R:1 pbc="T T T"
Si      -1.36870210      -1.34877943      -1.33800360       0.00000000
Si      -1.36559071       1.34728075       1.34996543       0.00000000
Si       1.32525667      -1.38350971       1.36011840       0.00000000
Si       1.38489664       1.33165864      -1.36796653       0.00000000
Si       0.07377741      -2.68051790      -2.62098279       0.00000000
Si       2.69606181      -0.01467729       2.68499317       0.00000000
Si      -0.00669519       2.71264340       2.68079194       0.00000000
Si      -2.69490359       2.71401176      -0.02582005       0.00000000
Si       0.05483214       2.74038527      -2.67904143       0.00000000
Si      -2.72145629      -0.03036456       2.70594096       0.00000000
