10
Lattice="16.290000149 0.0 0.0 0.0 16.290000149 0.0 0.0 0.0 29.1751946751" Properties=species:S:1:pos:R:3:initial_magmoms:R:1 pbc="T T T"
Si       0.81550999      -0.98559388      -1.94245529       0.00000000
Si      -1.33421617      -1.33405327       1.39431173       0.00000000
Si       1.59068593       1.12987441       1.34030844       0.00000000
Si      -1.49838679       1.31885470      -1.29041886       0.00000000
H        1.27022905       0.29906811      -2.60274829       0.00000000
H        0.68996296       1.87247036       2.31811509       0.00000000
Si      -1.06381846      -1.68619421      -3.21396862       0.00000000
Si      -2.53612496       2.80271082       0.17674333       0.00000000
Si      -2.53327421       0.14001255       2.82421719       0.00000000
Si      -2.89540092      -2.46156563      -0.07468850       0.00000000
