10
Lattice="16.290000149 0.0 0.0 0.0 16.290000149 0.0 0.0 0.0 29.1751946751" Properties=species:S:1:pos:R:3:initial_magmoms:R:1 pbc="T T T"
Si       1.42480486      -1.36039420      -1.27034633       0.00000000
Si       1.35620767       1.34967538       1.35460429       0.00000000
Si      -1.32493087      -1.38676771       1.38287505       0.00000000
Si      -1.33915204       1.33661080      -1.42173641       0.00000000
Si       0.03490947      -2.70536177      -2.54615425       0.00000000
Si      -2.68584635       2.61578306       0.03871548       0.00000000
Si       2.69671178       2.70290198      -0.03098406       0.00000000
Si       2.70172910      -0.03099987       2.70906270       0.00000000
Si       0.01221750       2.68061726       2.74138882       0.00000000
Si      -2.71080263      -0.06983523      -2.73370407       0.00000000
