10
Lattice="16.290000149 0.0 0.0 0.0 16.290000149 0.0 0.0 0.0 29.1751946751" Properties=species:S:1:pos:R:3:initial_magmoms:R:1 pbc="T T T"
Si      -2.07055676       0.72122998      -0.84295890       0.00000000
Si      -0.78356530      -1.49630167       1.70666136       0.00000000
Si       0.92242126       2.07896240       0.81903524       0.00000000
Si       1.04391208      -0.69976954      -2.06519533       0.00000000
H       -1.39299049       2.28379286       1.73440697       0.00000000
Si      -1.32369283       1.29724439      -2.99926836       0.00000000
Si      -2.67271661       2.24433848       0.91204576       0.00000000
H        0.39262158      -3.58718835      -0.54134574       0.00000000
Si      -2.32437125      -2.80764669       0.51637177       0.00000000
Si      -3.35676467      -1.26428320      -0.96467781       0.00000000
