10
Lattice="16.290000149 0.0 0.0 0.0 16.290000149 0.0 0.0 0.0 29.1751946751" Properties=species:S:1:pos:R:3:initial_magmoms:R:1 pbc="T T T"
H       -1.13541627       0.96803326       0.28772577       0.00000000
H        1.53686377      -1.46425924      -0.61585918       0.00000000
Si       1.48577833       1.20143638      -1.38360443       0.00000000
Si       1.27687537       0.16164567       2.02942654       0.00000000
Si      -1.31692401      -1.70134391      -1.13529435       0.00000000
H       -2.29350170      -0.83914678       2.21999891       0.00000000
Si       2.11825388      -2.78778266      -0.18389125       0.00000000
Si       0.05507812       2.41776182      -2.76747144       0.00000000
Si      -2.60387507      -0.35189658      -2.63638729       0.00000000
Si       0.74448559       2.54234774       2.76359114       0.00000000
