10
Lattice="16.290000149 0.0 0.0 0.0 16.290000149 0.0 0.0 0.0 29.1751946751" Properties=species:S:1:pos:R:3:initial_magmoms:R:1 pbc="T T T"
Si      -1.38443824       1.34399017       1.33488186       0.00000000
Si      -1.36506943      -1.33892398      -1.37391827       0.00000000
Si       1.34348518       1.37168317      -1.36388200       0.00000000
Si       1.34320825      -1.36495540       1.37415167       0.00000000
Si      -2.68081274       2.64717389      -0.12632859       0.00000000
Si       2.65971882      -2.70163136      -0.03512693       0.00000000
Si       0.00425169       2.70189200       2.66544579       0.00000000
Si      -2.73380411      -0.04668714       2.68067524       0.00000000
Si       2.73483690       0.00780291       2.68989460       0.00000000
Si      -0.01892898      -2.68701923      -2.74098036       0.00000000
