10
Lattice="16.290000149 0.0 0.0 0.0 16.290000149 0.0 0.0 0.0 29.1751946751" Properties=species:S:1:pos:R:3:initial_magmoms:R:1 pbc="T T T"
Si       1.35301483       1.39864312      -1.31945110       0.00000000
Si      -1.35184195       1.36938628       1.35842624       0.00000000
Si       1.37648872      -1.34723188       1.35933067       0.00000000
Si      -1.36288657      -1.36752922      -1.36292505       0.00000000
Si       2.73566118       0.04373865      -2.64349145       0.00000000
Si      -2.70845199      -2.69669549       0.01814697       0.00000000
Si       2.69045642       2.72303642       0.08484147       0.00000000
Si      -2.69851346       0.02173086       2.72700545       0.00000000
Si       0.02127474      -2.69117318       2.73523285       0.00000000
Si      -2.71735447       2.71735121      -0.01385822       0.00000000
