10
Lattice="16.290000149 0.0 0.0 0.0 16.290000149 0.0 0.0 0.0 29.1751946751" Properties=species:S:1:pos:R:3:initial_magmoms:R:1 pbc="T T T"
Si      -1.37095012       1.34576578       1.33855793       0.00000000
Si      -1.38564370      -1.35009892      -1.32490394       0.00000000
Si       1.36277254      -1.36586764       1.33549454       0.00000000
Si       1.37055916       1.35832537      -1.33800360       0.00000000
Si       0.00759114       2.68112225       2.68312595       0.00000000
Si      -0.05530455      -2.76947270      -2.61112157       0.00000000
Si      -0.00153126      -2.71343347       2.68569337       0.00000000
Si       2.69791724      -0.00057015      -2.70427797       0.00000000
Si      -2.72083727      -0.01899414       2.69517531       0.00000000
Si       2.72246627      -0.02204037       2.69864716       0.00000000
