10
Lattice="16.290000149 0.0 0.0 0.0 16.290000149 0.0 0.0 0.0 29.1751946751" Properties=species:S:1:pos:R:3:initial_magmoms:R:1 pbc="T T T"
Si       1.35835795      -1.24199848       1.45584280       0.00000000
Si      -1.17081884       1.59195998       1.28630516       0.00000000
Si       1.31608540       1.42628725      -1.34623101       0.00000000
Si      -1.45829710      -1.38357487      -1.34981956       0.00000000
Si      -0.52573532       2.60024729      -2.27785332       0.00000000
Si       2.80367193      -2.43522470       0.09776608       0.00000000
Si      -1.45692874       3.41728365      -0.28407887       0.00000000
Si       0.00646876      -2.59512734      -2.68741471       0.00000000
Si      -2.64859112       0.28455372       2.65928690       0.00000000
Si       0.01301571      -2.70361874       2.69028263       0.00000000
