10
Lattice="16.290000149 0.0 0.0 0.0 16.290000149 0.0 0.0 0.0 29.1751946751" Properties=species:S:1:pos:R:3:initial_magmoms:R:1 pbc="T T T"
Si       1.19065240      -0.50549499       0.79531581       0.00000000
H       -0.81344116       0.74759698      -1.65274560       0.00000000
H        0.62755597       1.65846863      -1.10719864       0.00000000
H       -0.57332656       0.13093902       2.33194414       0.00000000
Si      -1.88589332       0.58813417       1.72632544       0.00000000
Si      -1.65635093      -0.18757935      -2.46294076       0.00000000
Si       2.51792903      -1.58203594      -0.82603729       0.00000000
Si      -1.61906311       2.61498485       0.52775010       0.00000000
Si       0.51233679      -2.35652771       2.22408344       0.00000000
Si      -2.85456189      -1.40895469       0.84593477       0.00000000
