10
Lattice="16.290000149 0.0 0.0 0.0 16.290000149 0.0 0.0 0.0 29.1751946751" Properties=species:S:1:pos:R:3:initial_magmoms:R:1 pbc="T T T"
Si      -1.33497138      -1.37697742      -1.34512235       0.00000000
Si       1.34324898      -1.35801586       1.36338602       0.00000000
Si       1.33103148       1.35765748      -1.38322515       0.00000000
Si      -1.38811164       1.36114354       1.32321178       0.00000000
Si      -2.66503588       0.03174921      -2.65619725       0.00000000
Si      -0.03650752       2.71404434       2.68473059       0.00000000
Si       2.69109988       2.71200809      -0.02955447       0.00000000
Si       2.69121391       0.00366525       2.71408084       0.00000000
Si       2.70227482      -2.71357193       0.00942359       0.00000000
Si      -2.71986802      -2.70863606       0.02284418       0.00000000
