10
Lattice="16.290000149 0.0 0.0 0.0 16.290000149 0.0 0.0 0.0 29.1751946751" Properties=species:S:1:pos:R:3:initial_magmoms:R:1 pbc="T T T"
H       -1.14336253       0.08231337       0.99128559       0.00000000
Si       0.22822290      -2.16034724      -0.87931119       0.00000000
Si       2.05149746       0.72699013       0.90988680       0.00000000
Si      -0.23115510       1.53124372      -1.82823440       0.00000000
H       -0.46558449       1.00893745       2.62054516       0.00000000
H       -2.06808068       1.85528441       1.45371243       0.00000000
Si       2.34180155      -1.51115815      -1.90922474       0.00000000
H        2.41958630      -2.28454220       0.76427340       0.00000000
Si       3.31047012       0.48593070      -1.02883407       0.00000000
Si       1.70860925       2.85070116       1.83716201       0.00000000
