10
Lattice="16.290000149 0.0 0.0 0.0 16.290000149 0.0 0.0 0.0 29.1751946751" Properties=species:S:1:pos:R:3:initial_magmoms:R:1 pbc="T T T"
Si       1.36384768       1.36174627      -1.32945527       0.00000000
Si      -1.35016408       1.36487395       1.35574212       0.00000000
Si       1.38368890      -1.33825609       1.35014048       0.00000000
Si      -1.33483519      -1.35128809      -1.39407833       0.00000000
Si       2.70006752      -0.07934859      -2.61856125       0.00000000
Si      -2.69004917      -2.69522939      -0.01817615       0.00000000
Si      -0.02086749       2.71898021      -2.66856753       0.00000000
Si       0.02345760      -2.70076799       2.69424170       0.00000000
Si      -2.71876844       0.02104668       2.69867633       0.00000000
Si       0.01629000       2.72722295       2.70780817       0.00000000
