10
Lattice="16.290000149 0.0 0.0 0.0 16.290000149 0.0 0.0 0.0 29.1751946751" Properties=species:S:1:pos:R:3:initial_magmoms:R:1 pbc="T T T"
Si      -1.35620767      -1.34967538      -1.35460429       0.00000000
Si      -1.34399017       1.33094188       1.38678453       0.00000000
Si       1.34050411       1.35322660      -1.38558835       0.00000000
Si       1.34552143      -1.38067525       1.35445841       0.00000000
Si       0.06859719      -2.71006958      -2.62495062       0.00000000
Si      -2.70674642       2.67050117       0.02255243       0.00000000
Si       2.70494475       2.68309334      -0.00653524       0.00000000
Si      -2.69570180      -0.06032187       2.71425589       0.00000000
Si       2.69500622      -0.03533301      -2.71539372       0.00000000
Si       2.69712555      -0.02777445       2.71597722       0.00000000
