10
Lattice="16.290000149 0.0 0.0 0.0 16.290000149 0.0 0.0 0.0 29.1751946751" Properties=species:S:1:pos:R:3:initial_magmoms:R:1 pbc="T T T"
Si      -1.36676359       1.35796699      -1.32773393       0.00000000
Si       1.34877943       1.36262593       1.34652276       0.00000000
Si      -1.37551132      -1.32993190       1.35632563       0.00000000
Si       1.37546245      -1.36384768      -1.33216856       0.00000000
Si       2.66940974      -0.07620462       2.62279165       0.00000000
Si       0.00184077       2.70179426      -2.67066815       0.00000000
Si       0.01042560      -2.71911053      -2.67924565       0.00000000
Si      -2.70695819      -0.00457749      -2.69304552       0.00000000
Si      -2.68509701       2.72049518       0.06328100       0.00000000
Si       2.73569376      -0.00133578      -2.67626978       0.00000000
