10
Lattice="16.290000149 0.0 0.0 0.0 16.290000149 0.0 0.0 0.0 29.1751946751" Properties=species:S:1:pos:R:3:initial_magmoms:R:1 pbc="T T T"
Si       1.27907941      -1.37339199       1.38710837       0.00000000
Si      -1.34672966      -1.21337190      -1.48189275       0.00000000
Si      -1.43212621       1.30685060       1.35234905       0.00000000
Si       1.33568716       1.40659427      -1.35299528       0.00000000
Si      -1.63283957       0.61195177      -3.05227677       0.00000000
Si      -0.29806302       2.58994875      -2.56685989       0.00000000
Si       2.60892986      -2.68815791      -0.03227652       0.00000000
Si      -2.82450195      -2.52077815      -0.10891100       0.00000000
Si      -0.06990202       2.70200766       2.67075859       0.00000000
Si       2.58027575      -0.04647211       2.81313354       0.00000000
