10
Lattice="16.290000149 0.0 0.0 0.0 16.290000149 0.0 0.0 0.0 29.1751946751" Properties=species:S:1:pos:R:3:initial_magmoms:R:1 pbc="T T T"
Si       1.57892455      -1.08610318       1.32184055       0.00000000
Si      -1.23035113      -1.13787280      -1.62532092       0.00000000
Si      -1.60057396      -0.07558560       1.79121108       0.00000000
Si       1.29655369       1.59024610      -1.27688157       0.00000000
H        0.93226042      -1.91228312       2.39863863       0.00000000
H       -0.50873670      -2.82315477       1.85309167       0.00000000
Si      -1.71641216       2.22927675       2.02216192       0.00000000
Si      -2.64515393      -2.46413945      -0.38619205       0.00000000
Si       2.81670393      -2.45236178      -0.09636567       0.00000000
Si       0.13163949      -2.50707989      -2.88814005       0.00000000
