10
Lattice="16.290000149 0.0 0.0 0.0 16.290000149 0.0 0.0 0.0 29.1751946751" Properties=species:S:1:pos:R:3:initial_magmoms:R:1 pbc="T T T"
Si       1.34472322      -1.35273790      -1.34137042       0.00000000
Si       1.30526884       1.18188838       1.55280597       0.00000000
Si      -1.32010903      -1.40463784       1.34322888       0.00000000
Si      -1.21422403       1.41177286      -1.45459935       0.00000000
Si      -0.16232985      -2.63591750      -2.61950652       0.00000000
Si       0.40226526       2.89992465      -2.39800845       0.00000000
Si      -2.70275537      -0.04973337       2.66726924       0.00000000
Si      -2.69589728       2.70871312      -0.11219029       0.00000000
Si      -0.01573614       2.66988092       2.76086034       0.00000000
Si      -2.73639422      -2.69917157       0.00320373       0.00000000
