10
Lattice="16.290000149 0.0 0.0 0.0 16.290000149 0.0 0.0 0.0 29.1751946751" Properties=species:S:1:pos:R:3:initial_magmoms:R:1 pbc="T T T"
Si       1.25276617      -1.10644287       1.60589024       0.00000000
Si      -1.81512956      -1.31635907      -0.61241651       0.00000000
Si       1.21156876       1.32810742      -1.49741687       0.00000000
Si      -1.33325506       1.54510651       1.15778843       0.00000000
Si      -0.64233100      -1.12511121       2.94479827       0.00000000
H        3.09045738      -0.52637226      -0.76792030       0.00000000
Si      -0.19627821      -2.85159711      -1.68095802       0.00000000
Si       2.74986606       2.03929625       0.11608810       0.00000000
Si      -2.54208710      -1.67114713       1.65464199       0.00000000
Si      -3.03481074       0.56281951      -1.57461443       0.00000000
