10
Lattice="16.290000149 0.0 0.0 0.0 16.290000149 0.0 0.0 0.0 29.1751946751" Properties=species:S:1:pos:R:3:initial_magmoms:R:1 pbc="T T T"
Si       0.64666414       0.82617994      -1.07679809       0.00000000
H       -1.44099712      -0.91087165      -0.54554697       0.00000000
H       -0.62755597      -1.65846863       1.10719864       0.00000000
Si       0.56309644      -2.16396362       1.90251444       0.00000000
Si      -2.24661908       0.95651623       1.63494873       0.00000000
Si       1.92217115       2.28884276       0.22202323       0.00000000
Si       1.88444351      -0.54007866      -2.49500430       0.00000000
Si      -2.53283438       1.83669752      -0.60742755       0.00000000
Si      -0.93226042       1.91228312      -2.39863863       0.00000000
Si      -2.28390689      -1.84604798      -1.35574212       0.00000000
