10
Lattice="16.290000149 0.0 0.0 0.0 16.290000149 0.0 0.0 0.0 29.1751946751" Properties=species:S:1:pos:R:3:initial_magmoms:R:1 pbc="T T T"
Si      -1.34931024      -1.41092578       1.30486058       0.00000000
Si       1.33830846      -1.36332640      -1.37272208       0.00000000
Si      -1.43892153       1.34951248      -1.28703454       0.00000000
Si       1.37997340       1.35948196       1.35705501       0.00000000
Si      -2.58708961      -0.04466718       2.72306679       0.00000000
Si      -0.06052688       2.67626783      -2.67702834       0.00000000
Si      -0.00172674       2.75393562       2.65354231       0.00000000
Si       2.70867541      -2.70633917      -0.01566708       0.00000000
Si       2.69811949      -0.01303200      -2.72688875       0.00000000
Si       2.71584301       2.70966233      -0.01479182       0.00000000
