10
Lattice="16.290000149 0.0 0.0 0.0 16.290000149 0.0 0.0 0.0 29.1751946751" Properties=species:S:1:pos:R:3:initial_magmoms:R:1 pbc="T T T"
Si       1.02912076      -1.43967763      -1.52093207       0.00000000
Si      -1.32159142      -1.34247520       1.38214567       0.00000000
Si      -1.45925821       1.36291915      -1.28335846       0.00000000
Si       1.80763616       0.72096283       1.39973831       0.00000000
H        1.72255349      -2.51540408       1.25313296       0.00000000
Si       2.14371515      -1.21899700       2.77806204       0.00000000
Si       0.23846931      -2.65551437       2.60980869       0.00000000
Si       2.41523687      -0.11648979      -2.85645579       0.00000000
Si       2.26637885      -2.97610158      -0.30490996       0.00000000
Si      -2.71523351       0.14400360       2.58947358       0.00000000
