10
Lattice="16.290000149 0.0 0.0 0.0 16.290000149 0.0 0.0 0.0 29.1751946751" Properties=species:S:1:pos:R:3:initial_magmoms:R:1 pbc="T T T"
Si       2.20465604      -0.37939410       0.79966291       0.00000000
Si       0.04888629       2.29444652       0.66516526       0.00000000
Si       0.14450859      -0.42161778      -2.35510924       0.00000000
Si      -1.52371774      -1.37368684       1.27819445       0.00000000
H       -2.17090316      -0.21678732      -1.43973751       0.00000000
H       -0.87853600       2.45669492      -1.87240564       0.00000000
Si      -0.74588653       1.64300942      -3.13382436       0.00000000
Si       0.48809727       2.04752270       2.94746722       0.00000000
Si       2.12147930       0.31236075       3.02957847       0.00000000
Si       2.43967187      -0.33433596      -2.84020520       0.00000000
