10
Lattice="16.290000149 0.0 0.0 0.0 16.290000149 0.0 0.0 0.0 29.1751946751" Properties=species:S:1:pos:R:3:initial_magmoms:R:1 pbc="T T T"
Si       1.33421617       1.33405327      -1.39431173       0.00000000
Si      -1.19905804       1.47406582       1.42990547       0.00000000
Si       1.47157345      -1.20731707       1.45636737       0.00000000
Si      -1.56118474      -1.12751236      -1.46900023       0.00000000
H        1.82610902      -3.01459485      -0.79732890       0.00000000
Si      -2.52446132       0.09316251       2.80875434       0.00000000
Si      -0.16417062       2.65290797      -2.68473059       0.00000000
Si       2.92490211       2.46392768      -0.05400329       0.00000000
Si      -2.59522508       2.90633151       0.21081996       0.00000000
H        2.02417913       3.20652363       0.92380336       0.00000000
