10
Lattice="16.290000149 0.0 0.0 0.0 16.290000149 0.0 0.0 0.0 29.1751946751" Properties=species:S:1:pos:R:3:initial_magmoms:R:1 pbc="T T T"
Si       1.36006840      -1.35143470      -1.35337893       0.00000000
Si       1.37547874       1.36412461       1.33038888       0.00000000
Si      -1.35480673       1.35172792      -1.36890013       0.00000000
Si      -1.35381304      -1.34715043       1.37461847       0.00000000
Si       0.00298107       2.72253143       2.65202520       0.00000000
Si       2.68337027      -2.71643897       0.03889053       0.00000000
Si      -2.71388144      -2.69303024       0.00662277       0.00000000
Si      -2.72409527       0.03950325       2.68589760       0.00000000
Si       0.00037467      -2.69526197      -2.71653155       0.00000000
Si       2.71593398       0.02621061      -2.70935445       0.00000000
