10
Lattice="16.290000149 0.0 0.0 0.0 16.290000149 0.0 0.0 0.0 29.1751946751" Properties=species:S:1:pos:R:3:initial_magmoms:R:1 pbc="T T T"
Si       1.72493183       0.94056832       1.27584527       0.00000000
Si      -0.86612302      -1.72782493       1.38207799       0.00000000
Si       0.72852139      -0.63273619      -2.18075886       0.00000000
Si      -1.70482997       1.66825892       0.12765548       0.00000000
H       -2.91882594      -0.95070070      -0.67491036       0.00000000
Si       0.46701801       2.34158978       2.64072798       0.00000000
Si      -2.36335322      -0.49195800       2.66278442       0.00000000
Si      -0.84533698      -2.31900533      -2.62553470       0.00000000
Si       2.97444000      -1.13885020      -1.90213575       0.00000000
Si      -2.35838477       2.08922510      -2.00430728       0.00000000
