10
Lattice="16.290000149 0.0 0.0 0.0 16.290000149 0.0 0.0 0.0 29.1751946751" Properties=species:S:1:pos:R:3:initial_magmoms:R:1 pbc="T T T"
Si       0.54382537      -0.46069749      -1.55804292       0.00000000
Si      -1.48408417      -0.14011029       1.35667573       0.00000000
Si       0.42116166       1.29640708       1.52492908       0.00000000
Si      -0.67109914      -1.93808648      -0.00557246       0.00000000
Si       2.04001301       0.60704686      -0.05966327       0.00000000
Si      -0.69343273       1.07572645      -2.77406504       0.00000000
Si       1.17983584      -2.75410146       1.15174916       0.00000000
Si       0.08508267       3.23636691       0.14660535       0.00000000
Si      -3.04414491       1.17292888       0.12901271       0.00000000
Si      -1.72255349       2.51540408      -1.25313296       0.00000000
