10
Lattice="16.290000149 0.0 0.0 0.0 16.290000149 0.0 0.0 0.0 29.1751946751" Properties=species:S:1:pos:R:3:initial_magmoms:R:1 pbc="T T T"
Si       1.33956907      -1.35900955       1.36239407       0.00000000
Si      -1.35160412      -1.35290080      -1.36151881       0.00000000
Si       1.35869353       1.35169534      -1.36274417       0.00000000
Si      -1.32764153       1.34866540       1.39600389       0.00000000
Si       2.69014040       0.02634093       2.68662698       0.00000000
Si      -2.67032850       2.70646949       0.02663695       0.00000000
Si       0.03650752      -2.71404434      -2.68473059       0.00000000
Si      -2.69005569      -2.71003700       0.01890553       0.00000000
Si       2.69888813       2.71423982       0.00256742       0.00000000
Si      -2.69712555       0.02777445      -2.71597722       0.00000000
