10
Lattice="16.290000149 0.0 0.0 0.0 16.290000149 0.0 0.0 0.0 29.1751946751" Properties=species:S:1:pos:R:3:initial_magmoms:R:1 pbc="T T T"
Si      -1.36860436      -1.34382727       1.34293421       0.00000000
Si      -1.38225538       1.34594497      -1.33599051       0.00000000
Si       1.35016408      -1.36487395      -1.35574212       0.00000000
Si       1.36645408       1.36234900       1.35206605       0.00000000
Si       0.00513135       2.70550838      -2.63991749       0.00000000
Si      -0.00184077      -2.70179426       2.67066815       0.00000000
Si       2.71401176      -0.00312768      -2.68519739       0.00000000
Si      -2.70879896      -2.70637175      -0.02237737       0.00000000
Si      -2.70026300       2.71642268       0.05289463       0.00000000
Si      -2.68693778       0.01870092       2.73394914       0.00000000
