10
Lattice="16.290000149 0.0 0.0 0.0 16.290000149 0.0 0.0 0.0 29.1751946751" Properties=species:S:1:pos:R:3:initial_magmoms:R:1 pbc="T T T"
Si       1.36676359      -1.35796699       1.32773393       0.00000000
Si       1.36860436       1.34382727      -1.34293421       0.00000000
Si      -1.34019460      -1.36254448      -1.36531159       0.00000000
Si      -1.31833342       1.36252819       1.39101493       0.00000000
Si      -0.01365102       2.68977224      -2.67892473       0.00000000
Si      -0.00874773      -2.68789889       2.68405956       0.00000000
Si       2.71554302       0.00465894       2.67425669       0.00000000
Si      -2.69888813      -2.71423982      -0.00256742       0.00000000
Si      -2.69106893      -0.00337203      -2.72507988       0.00000000
Si       2.71876844      -0.02104668      -2.69867633       0.00000000
