10
Lattice="16.290000149 0.0 0.0 0.0 16.290000149 0.0 0.0 0.0 29.1751946751" Properties=species:S:1:pos:R:3:initial_magmoms:R:1 pbc="T T T"
Si      -1.46476586       1.21155247       1.33759515       0.00000000
Si       1.17729297       1.52762734      -1.31813530       0.00000000
Si      -0.22782217      -1.85215673      -1.43676164       0.00000000
Si       1.43952939      -1.18625410       1.44373451       0.00000000
H       -2.93589949      -1.25832106      -1.42255332       0.00000000
Si       2.08054090      -2.03118383      -2.03123540       0.00000000
Si      -2.61544260      -0.42751476       2.52050342       0.00000000
Si       2.53565092       0.17498718      -2.64543160       0.00000000
Si       3.16183853      -1.94691566       0.06660697       0.00000000
Si      -0.00646876       2.59512734       2.68741471       0.00000000
