10
Lattice="16.290000149 0.0 0.0 0.0 16.290000149 0.0 0.0 0.0 29.1751946751" Properties=species:S:1:pos:R:3:initial_magmoms:R:1 pbc="T T T"
H        1.98340526      -0.08029341      -1.05217422       0.00000000
Si       1.02006352      -1.32972013       1.62575855       0.00000000
Si       0.76010770       1.88631686      -1.26742881       0.00000000
Si      -0.78633460      -2.02918016      -1.02235717       0.00000000
Si      -1.07147476       1.11094543       1.87185132       0.00000000
H       -1.23608521       1.31281111      -2.38574319       0.00000000
H       -3.01011510       0.09861966      -1.21231686       0.00000000
H       -1.87799267       1.73815931      -2.29894699       0.00000000
H        2.31581900      -0.77613706       2.54352265       0.00000000
Si      -1.01419912       3.44277750      -0.63175967       0.00000000
