10
Lattice="16.290000149 0.0 0.0 0.0 16.290000149 0.0 0.0 0.0 29.1751946751" Properties=species:S:1:pos:R:3:initial_magmoms:R:1 pbc="T T T"
Si      -1.39271356      -1.34319196      -1.32954280       0.00000000
Si      -1.35902584       1.35555607       1.35396243       0.00000000
Si       1.32980158      -1.36994014       1.37280961       0.00000000
Si       1.36018243       1.34444629      -1.37243033       0.00000000
Si      -0.03666879      -2.73851030      -2.61888217       0.00000000
Si       2.70715367       2.70141959      -0.01000709       0.00000000
Si      -2.70227482       2.71357193      -0.00942359       0.00000000
Si       2.68962563      -2.72713336       0.03305550       0.00000000
Si       2.70309746      -0.02238246       2.71588970       0.00000000
Si      -0.01106091       2.71723718       2.70465725       0.00000000
