10
Lattice="16.290000149 0.0 0.0 0.0 16.290000149 0.0 0.0 0.0 29.1751946751" Properties=species:S:1:pos:R:3:initial_magmoms:R:1 pbc="T T T"
Si      -1.34605900      -1.28630728      -1.42503321       0.00000000
Si       1.34315938       1.38816865      -1.35224110       0.00000000
Si      -1.09882567       1.15121431       1.74079634       0.00000000
Si       1.32468652      -1.41551956       1.38214567       0.00000000
Si       2.39907719       0.27891738       2.76321186       0.00000000
Si       0.74178145       1.97600960       3.02266687       0.00000000
Si      -2.78376555      -0.35492652       2.46816312       0.00000000
Si       0.04264722      -2.63852390      -2.74092201       0.00000000
Si       2.72609895       0.03570768      -2.70372364       0.00000000
Si      -0.07905537      -3.23429808       2.13054777       0.00000000
