10
Lattice="16.290000149 0.0 0.0 0.0 16.290000149 0.0 0.0 0.0 29.1751946751" Properties=species:S:1:pos:R:3:initial_magmoms:R:1 pbc="T T T"
Si      -1.25072992       1.34488612       1.48478547       0.00000000
Si       1.35795070      -1.38582729       1.39667492       0.00000000
Si      -1.44624250      -1.44075277      -1.27664817       0.00000000
Si       1.52371774       1.37368684      -1.27819445       0.00000000
H       -0.64718542       1.15689952      -2.71793196       0.00000000
Si      -0.03776022      -2.62319501      -2.74567757       0.00000000
Si      -2.58641708      -0.06170815       2.83778074       0.00000000
Si      -2.88448010       2.52824060       0.27092086       0.00000000
Si       0.13690116       2.61897590       2.86331487       0.00000000
Si       3.72837378       0.99429274      -0.47853154       0.00000000
