10
Lattice="16.290000149 0.0 0.0 0.0 16.290000149 0.0 0.0 0.0 29.1751946751" Properties=species:S:1:pos:R:3:initial_magmoms:R:1 pbc="T T T"
Si       1.31651057      -1.33667596      -1.40927860       0.00000000
Si       1.39162865       1.37275831       1.31574293       0.00000000
Si      -1.34320825       1.36495540      -1.37415167       0.00000000
Si      -1.35430174      -1.34837218       1.39118998       0.00000000
Si      -0.01523115       2.69252525       2.62518402       0.00000000
Si       2.64341090      -2.69715161      -0.04425877       0.00000000
Si      -2.69897609      -2.67424787      -0.01712584       0.00000000
Si      -2.72764650       2.70894557      -0.03926981       0.00000000
Si       2.66748752       0.02896362      -2.77164349       0.00000000
Si       0.03284781      -2.70352100       2.74748643       0.00000000
