10
Lattice="16.290000149 0.0 0.0 0.0 16.290000149 0.0 0.0 0.0 29.1751946751" Properties=species:S:1:pos:R:3:initial_magmoms:R:1 pbc="T T T"
Si      -1.27972612      -0.03945438      -0.82236121       0.00000000
Si       2.31541175      -0.20483046      -0.91537173       0.00000000
Si       2.17090316       0.21678732       1.43973751       0.00000000
Si       1.42501663       1.85979674      -1.69408685       0.00000000
H        1.29236716       2.67348224      -0.43266814       0.00000000
Si       0.64718542      -1.15689952       2.71793196       0.00000000
Si      -2.64087781      -1.42369226       0.50966148       0.00000000
Si      -0.79905709      -2.59765229       1.44128379       0.00000000
Si      -0.67756627      -1.56256288      -2.57736587       0.00000000
Si      -2.07697828       2.22239585      -0.60663982       0.00000000
