10
Lattice="16.290000149 0.0 0.0 0.0 16.290000149 0.0 0.0 0.0 29.1751946751" Properties=species:S:1:pos:R:3:initial_magmoms:R:1 pbc="T T T"
Si      -1.34577393       1.36100834      -1.35556707       0.00000000
Si       1.35671266       1.36252656       1.35037389       0.00000000
Si      -1.37550969      -1.34825815       1.35081151       0.00000000
Si       1.31800762      -1.37047771      -1.38888514       0.00000000
Si       0.01332522      -2.69772176       2.68105451       0.00000000
Si      -2.65983725      -0.02290374      -2.71947825       0.00000000
Si       2.70539435      -0.01091430      -2.69281212       0.00000000
Si      -0.02632464       2.71766072       2.68569337       0.00000000
Si      -2.68975524      -2.71441901      -0.04361692       0.00000000
Si       2.70026300      -2.71642268      -0.05289463       0.00000000
