10
Lattice="16.28999089631971 0.0 0.0 0.0 16.28999089631971 0.0 0.0 0.0 34.529650657227435" Properties=species:S:1:pos:R:3:initial_magmoms:R:1 pbc="T T T"
Si      -1.33992810      -1.34807719      -1.37614547       0.00000000
Si      -1.55122569       1.22514647       1.30532511       0.00000000
Si       1.36861738       1.37353208      -1.36830723       0.00000000
Si       1.30749730      -1.37906157       1.44444515       0.00000000
Si      -0.46075125       1.46563573       3.37727796       0.00000000
Si      -2.69307324      -2.69413698       0.00000000       0.00000000
Si      -2.69981730       0.00994179      -2.73222919       0.00000000
Si       0.01337083      -2.70438339      -2.73392115       0.00000000
Si       2.73686335      -2.70180957       0.01322486       0.00000000
Si      -2.70815778       2.73951374      -0.00811447       0.00000000
