10
Lattice="16.28999089631971 0.0 0.0 0.0 16.28999089631971 0.0 0.0 0.0 34.529650657227435" Properties=species:S:1:pos:R:3:initial_magmoms:R:1 pbc="T T T"
Si      -0.09267381       1.16466984      -2.01832827       0.00000000
Si       1.00598080      -2.09969955      -0.27078167       0.00000000
Si      -1.96871070      -0.35440524       1.24907628       0.00000000
Si       1.27768171       1.23833322       1.55590693       0.00000000
Si       2.32786543       1.16784639      -2.14543198       0.00000000
Si      -1.86789189       2.69390988      -1.32013834       0.00000000
Si      -2.10008955       1.70619831       2.46603997       0.00000000
Si       2.72157844      -1.23891966      -2.21017511       0.00000000
Si      -3.64557072      -0.73951713      -0.32229994       0.00000000
Si       1.11522155       0.10308312       3.62502834       0.00000000
