10
Lattice="16.28999089631971 0.0 0.0 0.0 16.28999089631971 0.0 0.0 0.0 34.529650657227435" Properties=species:S:1:pos:R:3:initial_magmoms:R:1 pbc="T T T"
Si      -0.62218582       1.42268715      -1.74253979       0.00000000
Si      -0.13725465      -2.28776760      -0.53051385       0.00000000
Si      -1.94237629       0.02256165       1.34703695       0.00000000
Si       1.81970866       0.77882490       1.39313406       0.00000000
Si      -0.90618568      -1.12350501       3.14313227       0.00000000
Si      -0.40461477      -3.02120856       1.70393562       0.00000000
Si      -2.51202130       2.28977127       1.35701603       0.00000000
Si      -2.74767244       2.22645204      -1.05892139       0.00000000
Si       1.34176006       2.51842213      -2.35495802       0.00000000
Si       1.18594621      -0.14165784       3.52143933       0.00000000
