10
Lattice="16.28999089631971 0.0 0.0 0.0 16.28999089631971 0.0 0.0 0.0 34.529650657227435" Properties=species:S:1:pos:R:3:initial_magmoms:R:1 pbc="T T T"
Si       0.48734793       2.32050303      -0.44387891       0.00000000
Si       1.45989351      -1.63626534       1.20684649       0.00000000
Si       0.40920480      -1.55944170      -1.95828117       0.00000000
Si      -1.69055081       1.24885234       1.57507611       0.00000000
Si       0.11803571       2.30532075       2.72944407       0.00000000
Si       1.67953158      -3.23804475      -0.71569647       0.00000000
Si      -1.68292709      -2.54128887      -2.33658824       0.00000000
Si      -1.65492458       3.29374745      -1.31737597       0.00000000
Si       1.93256415       3.11426423       1.38367293       0.00000000
Si       2.89478187      -0.32604435       2.63873118       0.00000000
