10
Lattice="16.28999089631971 0.0 0.0 0.0 16.28999089631971 0.0 0.0 0.0 34.529650657227435" Properties=species:S:1:pos:R:3:initial_magmoms:R:1 pbc="T T T"
Si       1.91084958      -1.21556469       0.51732352       0.00000000
Si      -2.03514228      -0.43074507       1.18032771       0.00000000
Si       0.62907093       2.30083218       0.26394480       0.00000000
Si      -0.08734698       0.25901100      -2.68934334       0.00000000
Si      -2.19165660       1.27413864      -1.92558157       0.00000000
Si      -2.72917773       1.61955180       0.40731199       0.00000000
Si       2.20833756       1.07878896      -2.27253570       0.00000000
Si       3.48894333       0.18252945      -0.51994777       0.00000000
Si      -3.13584129      -1.69631305      -0.47174435       0.00000000
Si      -0.28435824      -2.11392791      -2.91492568       0.00000000
