10
Lattice="16.28999089631971 0.0 0.0 0.0 16.28999089631971 0.0 0.0 0.0 34.529650657227435" Properties=species:S:1:pos:R:3:initial_magmoms:R:1 pbc="T T T"
Si       0.92240496       1.70079003       1.26012578       0.00000000
Si       0.18104706      -2.00422386       1.31078080       0.00000000
Si      -2.28597570       0.73122552      -0.17551431       0.00000000
Si       2.73618243       0.30625200       1.81094307       0.00000000
Si      -0.46623609       1.31699763       3.13418908       0.00000000
Si      -2.23249563       1.16727624      -2.60084380       0.00000000
Si       0.38291274      -3.74042835      -0.23221203       0.00000000
Si       2.27431206      -1.90006560       2.35350777       0.00000000
Si       1.37368683      -2.70076797      -2.49901580       0.00000000
Si      -2.22464385      -0.37144458       3.38635926       0.00000000
