10
Lattice="16.28999089631971 0.0 0.0 0.0 16.28999089631971 0.0 0.0 0.0 34.529650657227435" Properties=species:S:1:pos:R:3:initial_magmoms:R:1 pbc="T T T"
Si      -1.96394588      -1.09573498       0.61241823       0.00000000
Si       1.10069901       1.26556798       1.65207206       0.00000000
Si       1.48234113      -1.61556517      -0.88040299       0.00000000
Si      -0.68111096       1.34014686      -1.85565899       0.00000000
Si       0.94418469       2.97045169      -1.45383722       0.00000000
Si      -2.19795173      -2.25708166      -1.40594457       0.00000000
Si       0.40666356       3.31586485       0.87905634       0.00000000
Si       3.13584129       1.69631305       0.47174435       0.00000000
Si      -0.06051735      -2.91317770      -2.15599806       0.00000000
Si      -1.34176006      -2.51842213       2.35495802       0.00000000
