10
Lattice="16.28999089631971 0.0 0.0 0.0 16.28999089631971 0.0 0.0 0.0 34.529650657227435" Properties=species:S:1:pos:R:3:initial_magmoms:R:1 pbc="T T T"
Si      -1.59264072       1.55797953      -0.60730784       0.00000000
Si       1.48333482       0.14296104       1.83587349       0.00000000
Si       1.05539652      -0.90986166      -1.92098913       0.00000000
Si      -1.39075875      -1.96226082       0.02427436       0.00000000
Si       1.14235254      -2.07500391       2.47197907       0.00000000
Si       0.42301872      -3.35679885       0.57509165       0.00000000
Si       2.07871803       2.19108386      -1.75407270       0.00000000
Si      -0.87430059      -0.36914769      -3.58542281       0.00000000
Si      -2.60245782       0.87851970      -2.56583071       0.00000000
Si      -3.73420557       0.91445544       0.11349903       0.00000000
