10
Lattice="16.28999089631971 0.0 0.0 0.0 16.28999089631971 0.0 0.0 0.0 34.529650657227435" Properties=species:S:1:pos:R:3:initial_magmoms:R:1 pbc="T T T"
Si      -0.69403545       2.05029687      -0.77301572       0.00000000
Si      -1.10069901      -1.26556798      -1.65207206       0.00000000
Si       2.03514228       0.43074507      -1.18032771       0.00000000
Si      -0.85392180      -0.57633368       2.17802799       0.00000000
Si      -0.15651432       1.70488371      -3.10590928       0.00000000
Si      -0.62275041      -3.00516521       2.09602003       0.00000000
Si      -2.97140093       2.31864204      -0.65285247       0.00000000
Si       0.38164212      -2.88113315      -2.53247505       0.00000000
Si       2.66421321       2.73157725      -0.91638291       0.00000000
Si      -1.78180997       0.07457888      -3.50773105       0.00000000
