10
Lattice="16.28999089631971 0.0 0.0 0.0 16.28999089631971 0.0 0.0 0.0 34.529650657227435" Properties=species:S:1:pos:R:3:initial_magmoms:R:1 pbc="T T T"
Si      -0.12696426      -0.10749771       2.32899171       0.00000000
Si       1.85937318      -1.31505912      -0.77035694       0.00000000
Si      -2.07083367      -0.73404369      -1.01555212       0.00000000
Si       1.02392424       2.06524524      -0.78282215       0.00000000
Si       1.86888654      -1.23691599       2.71530966       0.00000000
Si       3.40278552      -0.64754379       0.93644465       0.00000000
Si      -1.58794920      -0.71804691      -3.37068279       0.00000000
Si       0.11062539       2.02962064       3.24540915       0.00000000
Si       1.29230199      -3.56368185      -0.58621021       0.00000000
Si       0.46678995       0.29019006      -3.83852529       0.00000000
