10
Lattice="16.28999089631971 0.0 0.0 0.0 16.28999089631971 0.0 0.0 0.0 34.529650657227435" Properties=species:S:1:pos:R:3:initial_magmoms:R:1 pbc="T T T"
Si      -1.38311874      -1.35534592       1.33636729       0.00000000
Si       1.35726651      -1.36100018      -1.35850081       0.00000000
Si      -1.35925389       1.35731538      -1.36119412       0.00000000
Si       1.36995642       1.35997065       1.35480613       0.00000000
Si       2.62495431      -0.09194076       2.69814841       0.00000000
Si      -0.03510495       2.65282650       2.73126236       0.00000000
Si      -2.70857088       2.70663237      -0.00652611       0.00000000
Si       2.71469592       2.71337643       0.00172648       0.00000000
Si      -0.08332335      -2.73235899       2.69507527       0.00000000
Si       0.00008145       2.71246419      -2.71655272       0.00000000
