10
Lattice="16.28999089631971 0.0 0.0 0.0 16.28999089631971 0.0 0.0 0.0 34.529650657227435" Properties=species:S:1:pos:R:3:initial_magmoms:R:1 pbc="T T T"
Si       1.35532800       1.34395758       1.36982654       0.00000000
Si      -1.36238157       1.35123921      -1.35919140       0.00000000
Si       1.35366642      -1.36278882      -1.36029635       0.00000000
Si      -1.36689390      -1.38318390       1.34203015       0.00000000
Si       2.71396287       2.70962973      -0.00290049       0.00000000
Si      -2.71422351       2.71137276       0.00096683       0.00000000
Si      -0.00320913       2.71055826      -2.71717426       0.00000000
Si       2.71112841      -0.00371412      -2.71727785       0.00000000
Si       2.71047681      -2.71920825      -0.00003453       0.00000000
Si      -2.71878471      -0.00425169      -2.71748503       0.00000000
