10
Lattice="16.28999089631971 0.0 0.0 0.0 16.28999089631971 0.0 0.0 0.0 34.529650657227435" Properties=species:S:1:pos:R:3:initial_magmoms:R:1 pbc="T T T"
Si       1.28956527      -0.43188048       1.87865575       0.00000000
Si      -1.00844874      -1.78007346      -1.12601254       0.00000000
Si       1.75677876       0.98907993      -1.20760615       0.00000000
Si      -1.78429257       1.66074921       0.10714557       0.00000000
Si      -2.28397203      -0.40213494      -2.62867471       0.00000000
Si       0.43007229       2.31772491      -2.64566331       0.00000000
Si       2.57007330       2.65900041       0.24412477       0.00000000
Si      -2.02561263       2.06746164       2.49242064       0.00000000
Si      -0.99297324       3.52342926      -1.21900094       0.00000000
Si       2.65298940       1.47103587       2.40754671       0.00000000
