10
Lattice="16.28999089631971 0.0 0.0 0.0 16.28999089631971 0.0 0.0 0.0 34.529650657227435" Properties=species:S:1:pos:R:3:initial_magmoms:R:1 pbc="T T T"
Si       2.16883431      -0.76784544       0.21815845       0.00000000
Si      -0.57482523       1.98421974       1.11762183       0.00000000
Si       0.42176439       0.83743632      -2.21680481       0.00000000
Si      -1.34037378      -1.96599123       0.53503724       0.00000000
Si      -1.98223236       2.66805765      -0.70889412       0.00000000
Si       0.82992663      -1.23636213      -3.17911218       0.00000000
Si       2.33043111      -2.22329178      -1.60966962       0.00000000
Si      -3.46595814      -0.96635538       0.33483421       0.00000000
Si      -1.77176556       1.31378850       2.99651929       0.00000000
Si      -3.16343655      -0.82005489      -2.06321684       0.00000000
