10
Lattice="16.28999089631971 0.0 0.0 0.0 16.28999089631971 0.0 0.0 0.0 34.529650657227435" Properties=species:S:1:pos:R:3:initial_magmoms:R:1 pbc="T T T"
Si      -1.13546187       0.02026476       2.03024100       0.00000000
Si       0.83142531      -2.19483315      -0.07945277       0.00000000
Si      -1.55577645      -0.14167413      -1.76753928       0.00000000
Si       1.47812202       1.91433564      -0.15438215       0.00000000
Si       0.53124948       1.26796473       3.02987495       0.00000000
Si       1.40470299      -2.12714820      -2.34970951       0.00000000
Si       3.39763788       0.66893256       0.21739880       0.00000000
Si      -3.06512640       1.44660087      -0.82543176       0.00000000
Si      -1.22204322      -3.25405782       0.56980861       0.00000000
Si       3.19841118      -1.20000285      -1.14531462       0.00000000
