10
Lattice="16.28999089631971 0.0 0.0 0.0 16.28999089631971 0.0 0.0 0.0 34.529650657227435" Properties=species:S:1:pos:R:3:initial_magmoms:R:1 pbc="T T T"
Si      -1.66671135      -1.24769997      -0.99963395       0.00000000
Si      -0.88257591       0.47749248       2.10568354       0.00000000
Si       2.20884255      -0.68439177      -0.49684742       0.00000000
Si       0.31486941       1.99853865      -1.28464184       0.00000000
Si      -0.53124948      -1.26796473      -3.02987495       0.00000000
Si       0.94687254       0.64637091      -3.18425710       0.00000000
Si       3.44390148       1.23540102       0.33580104       0.00000000
Si       0.88200576       1.53854163       3.27655979       0.00000000
Si       2.40600042      -2.96241795      -0.14530085       0.00000000
Si      -3.58107957       0.30708279      -1.42238069       0.00000000
