10
Lattice="16.28999089631971 0.0 0.0 0.0 16.28999089631971 0.0 0.0 0.0 34.529650657227435" Properties=species:S:1:pos:R:3:initial_magmoms:R:1 pbc="T T T"
Si       1.35760352      -1.35404109      -1.35635997       0.00000000
Si      -1.35784241      -1.35523026       1.35729227       0.00000000
Si       1.35710341       1.36013355       1.35705056       0.00000000
Si      -1.35585503       1.36031274      -1.36278248       0.00000000
Si       2.71363850      -2.71174743       0.00113948       0.00000000
Si      -0.00048776      -2.71246419       2.71506795       0.00000000
Si       2.71481138       0.00272043       2.71465359       0.00000000
Si      -2.71494602       0.00162900       2.71475718       0.00000000
Si      -2.71774790      -2.71329498      -0.00041436       0.00000000
Si       2.71420865       2.71766070       0.00003453       0.00000000
