10
Lattice="16.28999089631971 0.0 0.0 0.0 16.28999089631971 0.0 0.0 0.0 34.529650657227435" Properties=species:S:1:pos:R:3:initial_magmoms:R:1 pbc="T T T"
Si      -0.49216977      -0.44843112       2.24021593       0.00000000
Si       1.53767826       1.77986169       0.13718638       0.00000000
Si      -1.88475300       1.15681806      -0.82795243       0.00000000
Si       0.53651115      -1.92598299      -1.36613186       0.00000000
Si       3.62773413       0.79465878      -0.10020510       0.00000000
Si      -1.49810985      -2.33124561      -2.52539647       0.00000000
Si       1.20726819       3.10845195      -1.77316761       0.00000000
Si      -1.05924096      -2.69705385       2.42436266       0.00000000
Si      -1.91459628       3.30739358       0.02537931       0.00000000
Si       1.73345148      -1.25555175      -3.24502932       0.00000000
