10
Lattice="16.28999089631971 0.0 0.0 0.0 16.28999089631971 0.0 0.0 0.0 34.529650657227435" Properties=species:S:1:pos:R:3:initial_magmoms:R:1 pbc="T T T"
Si      -1.99585080       1.12941828      -0.38631795       0.00000000
Si       1.53389898       0.58937220      -1.77886501       0.00000000
Si      -0.56128824      -2.19831921      -0.86859385       0.00000000
Si       0.36303894      -0.27544761       2.44552934       0.00000000
Si       3.33466074      -0.50686335      -0.73085499       0.00000000
Si      -0.00951336      -0.07814313      -3.48566659       0.00000000
Si      -1.86888654       1.23691599      -2.71530966       0.00000000
Si      -1.75826115       3.26653663       0.53009949       0.00000000
Si       2.03756949       2.88629478      -1.63598123       0.00000000
Si       3.01979133      -2.50540200       0.55378685       0.00000000
