10
Lattice="16.28999089631971 0.0 0.0 0.0 16.28999089631971 0.0 0.0 0.0 34.529650657227435" Properties=species:S:1:pos:R:3:initial_magmoms:R:1 pbc="T T T"
Si      -1.33366230      -1.35052244       1.37526841       0.00000000
Si       1.22135904      -1.48457285      -1.36448825       0.00000000
Si       1.38548079       1.35985568       1.36490951       0.00000000
Si      -1.34206794       1.29757738      -1.55590002       0.00000000
Si       2.29022739       0.27212025      -2.55173191       0.00000000
Si       0.56076696       2.11751172      -2.81671781       0.00000000
Si      -2.68185528      -2.69716787      -0.00082181       0.00000000
Si      -2.68563456       2.71418184      -0.02929152       0.00000000
Si      -2.68832241       0.00245326       2.72931489       0.00000000
Si       0.02409291      -2.70951569       2.72879695       0.00000000
