10
Lattice="16.28999089631971 0.0 0.0 0.0 16.28999089631971 0.0 0.0 0.0 34.529650657227435" Properties=species:S:1:pos:R:3:initial_magmoms:R:1 pbc="T T T"
Si       1.33992810       1.34807719       1.37614547       0.00000000
Si       1.35329894      -1.35630620      -1.35777568       0.00000000
Si      -1.35988920       1.35801898      -1.35608373       0.00000000
Si      -1.35314514      -1.34605979       1.37614547       0.00000000
Si      -0.21129759       2.57322366       2.68147058       0.00000000
Si       2.71256912       0.00146264      -2.71406659       0.00000000
Si       2.71546874      -2.71220435       0.00542116       0.00000000
Si      -0.00204318      -2.71349126      -2.71423924       0.00000000
Si      -2.71337643       2.71634760       0.00455792       0.00000000
Si       2.70854549       2.72160927       0.00783824       0.00000000
