10
Lattice="16.28999089631971 0.0 0.0 0.0 16.28999089631971 0.0 0.0 0.0 34.529650657227435" Properties=species:S:1:pos:R:3:initial_magmoms:R:1 pbc="T T T"
Si      -1.35729909      -1.35660021      -1.35829363       0.00000000
Si      -1.35348723       1.35832862       1.36064164       0.00000000
Si       1.35988920      -1.35801898       1.35608373       0.00000000
Si       1.35751755       1.35878474      -1.35774115       0.00000000
Si       2.71318814      -2.71432518      -0.00169195       0.00000000
Si       0.00043983      -2.71411341      -2.71544777       0.00000000
Si      -2.71458189       0.00060436      -2.71517154       0.00000000
Si      -2.71551042      -2.71476501      -0.00148478       0.00000000
Si       2.71494583       2.71605125      -0.00082871       0.00000000
Si       2.71542801       0.00086663      -2.71568948       0.00000000
