10
Lattice="16.28999089631971 0.0 0.0 0.0 16.28999089631971 0.0 0.0 0.0 34.529650657227435" Properties=species:S:1:pos:R:3:initial_magmoms:R:1 pbc="T T T"
Si       1.35348723      -1.35832862      -1.36064164       0.00000000
Si       1.34514675       1.37124333       1.36347308       0.00000000
Si      -1.36269108       1.35782037      -1.36233360       0.00000000
Si      -1.36440153      -1.38842928       1.36043447       0.00000000
Si       2.50207884      -0.14312394       2.67691266       0.00000000
Si       2.71498989       2.71171485      -0.00238255       0.00000000
Si       2.71100478       0.00045612      -2.71838280       0.00000000
Si       2.71337643      -2.71634760      -0.00455792       0.00000000
Si      -2.71357191      -2.71717919      -0.00424715       0.00000000
Si      -0.00345348       2.71454931      -2.71869356       0.00000000
