10
Lattice="16.28999089631971 0.0 0.0 0.0 16.28999089631971 0.0 0.0 0.0 34.529650657227435" Properties=species:S:1:pos:R:3:initial_magmoms:R:1 pbc="T T T"
Si       1.15693209      -1.51436727       1.31343959       0.00000000
Si       1.36984314       1.34047152      -1.36585562       0.00000000
Si      -1.34514675      -1.37124333      -1.36347308       0.00000000
Si      -1.41058368       1.24131429       1.47120565       0.00000000
Si      -0.83121354      -2.17471500       2.69400485       0.00000000
Si       0.10295280       2.30027832       2.93315734       0.00000000
Si      -2.71000440       2.69863398       0.03093858       0.00000000
Si      -2.64810240      -0.31899078       2.74324416       0.00000000
Si       0.00933417       2.70262503      -2.72411472       0.00000000
Si      -2.70783783      -0.01342296      -2.72580668       0.00000000
