10
Lattice="16.28999089631971 0.0 0.0 0.0 16.28999089631971 0.0 0.0 0.0 34.529650657227435" Properties=species:S:1:pos:R:3:initial_magmoms:R:1 pbc="T T T"
Si      -0.39460896      -1.02918591       2.07554393       0.00000000
Si       0.58044528      -1.70269596      -1.51927095       0.00000000
Si       2.15432711       0.98303634      -0.11936907       0.00000000
Si      -1.57690458       1.86382035      -0.16322175       0.00000000
Si      -2.74440888      -1.53127629       1.77955560       0.00000000
Si       2.26385455       1.66026051      -2.40675253       0.00000000
Si       0.77118489      -3.06783380       1.95147883       0.00000000
Si       0.36645984      -3.78143747      -0.29184477       0.00000000
Si       2.48616907      -0.76677030      -2.84773094       0.00000000
Si      -3.44471598       1.06901496      -1.38218816       0.00000000
