10
Lattice="16.28999089631971 0.0 0.0 0.0 16.28999089631971 0.0 0.0 0.0 34.529650657227435" Properties=species:S:1:pos:R:3:initial_magmoms:R:1 pbc="T T T"
Si       1.35784241       1.35523026      -1.35729227       0.00000000
Si      -1.35710361       1.35685926       1.35746491       0.00000000
Si       1.35735465      -1.35723393       1.35777568       0.00000000
Si      -1.35990549      -1.35806472      -1.35770662       0.00000000
Si      -2.71296918       0.00223173      -2.71603478       0.00000000
Si       2.71544593       0.00118917      -2.71365223       0.00000000
Si       2.71478293       0.00003258       2.71468812       0.00000000
Si      -2.71498914       2.71490769      -0.00017265       0.00000000
Si      -2.71474479      -2.71541431       0.00034530       0.00000000
Si      -2.71634121       0.00013032       2.71382488       0.00000000
