10
Lattice="16.28999089631971 0.0 0.0 0.0 16.28999089631971 0.0 0.0 0.0 34.529650657227435" Properties=species:S:1:pos:R:3:initial_magmoms:R:1 pbc="T T T"
Si      -1.86781140      -0.79480539      -1.21896641       0.00000000
Si       0.96117516       1.85284089      -1.16520371       0.00000000
Si      -0.85737528       0.61696746       2.14964460       0.00000000
Si       1.57690458      -1.86382035       0.16322175       0.00000000
Si       0.29699928       2.67737553       1.96390951       0.00000000
Si       2.41184853       2.56749948       0.63544952       0.00000000
Si      -2.62809828      -2.63078613       0.16011408       0.00000000
Si       1.91861991       0.94356567      -3.13674428       0.00000000
Si      -0.83243529      -1.67570343      -3.32665746       0.00000000
Si       3.73123169      -0.88078401       0.04385268       0.00000000
