10
Lattice="16.28999089631971 0.0 0.0 0.0 16.28999089631971 0.0 0.0 0.0 34.529650657227435" Properties=species:S:1:pos:R:3:initial_magmoms:R:1 pbc="T T T"
Si      -1.35344317       1.35399222       1.35908781       0.00000000
Si       1.35348886      -1.35246096       1.36475068       0.00000000
Si      -1.35742828      -1.35726651      -1.35691244       0.00000000
Si       1.35787087       1.35791811      -1.35732680       0.00000000
Si       2.71477900       2.71339272       0.00051795       0.00000000
Si      -2.71478293      -0.00003258      -2.71468812       0.00000000
Si       0.00048218      -2.71518462      -2.71486077       0.00000000
Si      -2.71395214       2.71614573       0.00082871       0.00000000
Si       0.00016290       2.71533123      -2.71492983       0.00000000
Si       2.71567495       0.00000000      -2.71486077       0.00000000
