10
Lattice="16.28999089631971 0.0 0.0 0.0 16.28999089631971 0.0 0.0 0.0 34.529650657227435" Properties=species:S:1:pos:R:3:initial_magmoms:R:1 pbc="T T T"
Si      -1.14789114       1.77759738       0.98868804       0.00000000
Si      -0.97226865       0.81950103      -1.99277631       0.00000000
Si       2.36929905       0.42279066       0.13829133       0.00000000
Si      -0.39697101      -2.21798124       0.91824751       0.00000000
Si       2.89952226      -1.83073536       0.12413416       0.00000000
Si       0.42301872       2.72258028      -2.19629419       0.00000000
Si       0.64581705       2.70474273       2.19308293       0.00000000
Si       1.68274071      -2.28644811       2.18110113       0.00000000
Si       2.49259806       1.30409595       2.32736881       0.00000000
Si       0.20743686      -3.75284133      -0.80222782       0.00000000
