10
Lattice="16.28999089631971 0.0 0.0 0.0 16.28999089631971 0.0 0.0 0.0 34.529650657227435" Properties=species:S:1:pos:R:3:initial_magmoms:R:1 pbc="T T T"
Si      -1.84678101       1.40064678      -0.13428589       0.00000000
Si      -0.73445094      -1.72079415       1.40760200       0.00000000
Si      -0.12329901      -0.88130529      -2.18907749       0.00000000
Si       1.30578589       1.71453879       1.03637351       0.00000000
Si       2.37792365       1.55924622      -1.15847043       0.00000000
Si       1.42333128       0.61768422      -3.15545936       0.00000000
Si      -2.49259806      -1.30409595      -2.32736881       0.00000000
Si      -0.80985735      -3.59054406      -0.14626768       0.00000000
Si      -2.73308733      -0.80498664       2.43358208       0.00000000
Si       0.40692420      -3.13483131      -2.20323465       0.00000000
