10
Lattice="16.28999089631971 0.0 0.0 0.0 16.28999089631971 0.0 0.0 0.0 34.529650657227435" Properties=species:S:1:pos:R:3:initial_magmoms:R:1 pbc="T T T"
Si      -0.98859123      -1.68316425       1.42146363       0.00000000
Si       1.73863237       1.00405044       1.43832446       0.00000000
Si      -1.81270233       1.72845045       0.23008815       0.00000000
Si       0.70212248      -1.07294085      -2.51838695       0.00000000
Si       2.19293441       2.37096063      -1.40584098       0.00000000
Si      -2.14869987       2.04405291      -1.99643646       0.00000000
Si      -2.30550741      -0.28380438       2.86393714       0.00000000
Si       0.43547318       2.45087937       2.86167890       0.00000000
Si      -1.74816135      -3.58757928       0.05027520       0.00000000
Si      -1.02837141       3.67934085       1.43565877       0.00000000
