10
Lattice="16.28999089631971 0.0 0.0 0.0 16.28999089631971 0.0 0.0 0.0 34.529650657227435" Properties=species:S:1:pos:R:3:initial_magmoms:R:1 pbc="T T T"
Si       1.54952665      -0.61493121      -1.56910179       0.00000000
Si       1.54383818       1.34244261       1.21718848       0.00000000
Si      -1.31559669      -1.58504958       1.19657081       0.00000000
Si      -1.39802409       0.97748145      -1.75442253       0.00000000
Si      -2.60535744       2.56142331      -0.41190896       0.00000000
Si      -2.58551622      -0.11214036       2.61395506       0.00000000
Si       0.14540454       2.61239472       2.63243879       0.00000000
Si      -2.63308302      -0.94231134      -2.58707099       0.00000000
Si       1.90570913      -2.89342980      -1.64492895       0.00000000
Si       0.14824790      -2.81351106       2.62259093       0.00000000
