10
Lattice="16.28999089631971 0.0 0.0 0.0 16.28999089631971 0.0 0.0 0.0 34.529650657227435" Properties=species:S:1:pos:R:3:initial_magmoms:R:1 pbc="T T T"
Si      -2.16883431       0.76784544      -0.21815845       0.00000000
Si       0.50438727      -1.31820309       1.85959538       0.00000000
Si       1.74871521       1.55655837       0.03629068       0.00000000
Si       0.16159680      -1.45544634      -1.82782808       0.00000000
Si      -1.74706992       1.60528176      -2.43496327       0.00000000
Si       2.82857931      -1.58982255       1.27562960       0.00000000
Si       1.13948550       2.77373088       1.96138884       0.00000000
Si       3.61511494       0.15374502      -0.19333162       0.00000000
Si      -1.33890768      -0.46851669      -3.39727064       0.00000000
Si      -3.50920809      -1.19814579       0.31687878       0.00000000
