10
Lattice="16.28999089631971 0.0 0.0 0.0 16.28999089631971 0.0 0.0 0.0 34.529650657227435" Properties=species:S:1:pos:R:3:initial_magmoms:R:1 pbc="T T T"
Si       0.19715787      -2.27802618       0.35154657       0.00000000
Si      -2.20884255       0.68439177       0.49684742       0.00000000
Si       0.65754585       0.08535960      -2.31562873       0.00000000
Si       1.23505893       1.91979279       0.83264846       0.00000000
Si      -1.26197001       1.33076268      -2.68740968       0.00000000
Si      -1.89397314       2.68293042      -0.78779442       0.00000000
Si       0.53315541      -2.59362864       2.57807118       0.00000000
Si      -2.74009203      -0.58357296      -2.53302753       0.00000000
Si       2.63308302       0.94231134       2.58707099       0.00000000
Si       2.33478054       2.74479984      -1.24842022       0.00000000
