10
Lattice="16.28999089631971 0.0 0.0 0.0 16.28999089631971 0.0 0.0 0.0 34.529650657227435" Properties=species:S:1:pos:R:3:initial_magmoms:R:1 pbc="T T T"
Si       0.87807987       1.84718826      -1.24779868       0.00000000
Si      -1.34359920       0.83997756       1.83214429       0.00000000
Si      -1.87348032      -0.96992289      -1.28671362       0.00000000
Si       1.68956622      -1.83435174       0.17641208       0.00000000
Si      -0.45043479      -2.17562724      -2.71337599       0.00000000
Si       2.27041875       0.55368081      -2.69327973       0.00000000
Si       0.12127905       0.54643176       3.71404583       0.00000000
Si       3.45880683      -0.95487093      -1.26420028       0.00000000
Si       0.87627168      -3.50427222      -1.27531883       0.00000000
Si      -2.66479965      -2.83260294       0.03943288       0.00000000
