10
Lattice="16.28999089631971 0.0 0.0 0.0 16.28999089631971 0.0 0.0 0.0 34.529650657227435" Properties=species:S:1:pos:R:3:initial_magmoms:R:1 pbc="T T T"
Si      -1.67686002      -0.38511189      -1.57137622       0.00000000
Si       1.96871070       0.35440524      -1.24907628       0.00000000
Si       0.04157208      -1.90703772       1.38743667       0.00000000
Si      -0.13137885       2.06060355       1.21696369       0.00000000
Si      -0.56765763      -0.68986521       3.31253483       0.00000000
Si       0.94649787       1.11358440       3.12600555       0.00000000
Si      -2.16093366       1.89596052      -2.09505319       0.00000000
Si       3.24639242       1.59273846       0.30683065       0.00000000
Si       2.97469151      -1.74529431      -1.51985795       0.00000000
Si       0.50554386       3.76191879      -0.32589103       0.00000000
