10
Lattice="16.28999089631971 0.0 0.0 0.0 16.28999089631971 0.0 0.0 0.0 34.529650657227435" Properties=species:S:1:pos:R:3:initial_magmoms:R:1 pbc="T T T"
Si      -1.59295023      -1.53435510       0.79228328       0.00000000
Si      -0.16653267       2.27794473       0.55723981       0.00000000
Si       2.30068557      -0.51266259       0.22112801       0.00000000
Si      -1.64134782       2.40000570      -1.25933159       0.00000000
Si      -3.29446354       0.73120923      -0.84387060       0.00000000
Si       0.05761773      -3.17471412      -1.82102573       0.00000000
Si      -3.40399098       0.05398506       1.44351285       0.00000000
Si      -3.07214902      -1.69582158      -1.28484902       0.00000000
Si      -0.73793700       1.58441427      -3.32441303       0.00000000
Si       2.43825462      -1.98650034       2.05582749       0.00000000
