10
Lattice="16.28999089631971 0.0 0.0 0.0 16.28999089631971 0.0 0.0 0.0 34.529650657227435" Properties=species:S:1:pos:R:3:initial_magmoms:R:1 pbc="T T T"
Si      -0.95213421      -1.38034944       1.67075261       0.00000000
Si      -0.80840754       1.64362842      -1.52486475       0.00000000
Si       1.20998862      -1.42496775      -1.47945824       0.00000000
Si       1.60842573       1.17975438       1.31364676       0.00000000
Si       0.96738165      -2.62575252       2.04253357       0.00000000
Si       3.41354736      -1.13057487      -0.56390404       0.00000000
Si       0.80312958       3.38364477      -1.09231158       0.00000000
Si       3.55080202       1.15719273      -0.03339019       0.00000000
Si      -0.24808041      -3.36769686      -1.70949490       0.00000000
Si       1.18045485      -0.38491641      -3.60776351       0.00000000
