10
Lattice="16.28999089631971 0.0 0.0 0.0 16.28999089631971 0.0 0.0 0.0 34.529650657227435" Properties=species:S:1:pos:R:3:initial_magmoms:R:1 pbc="T T T"
Si       2.09213189       0.98184717       0.37830706       0.00000000
Si      -1.03619061       1.14606666      -1.79609531       0.00000000
Si       0.50157091      -1.89770355      -1.43919664       0.00000000
Si      -1.09972161      -0.82500705       2.08106868       0.00000000
Si      -1.67723469      -2.65944024      -1.06720851       0.00000000
Si       0.90618568       1.12350501      -3.14313227       0.00000000
Si       2.72589434       1.90232991      -1.74999820       0.00000000
Si       1.84782913      -2.41741971       2.26638942       0.00000000
Si       3.36245867      -0.69675588       1.62089177       0.00000000
Si      -2.33478054      -2.74479984       1.24842022       0.00000000
