10
Lattice="16.28999089631971 0.0 0.0 0.0 16.28999089631971 0.0 0.0 0.0 34.529650657227435" Properties=species:S:1:pos:R:3:initial_magmoms:R:1 pbc="T T T"
Si      -1.37438730      -1.82172699      -0.17561790       0.00000000
Si       0.18409329       1.73120346       1.49851862       0.00000000
Si       1.98386136      -1.14044661      -0.31898509       0.00000000
Si      -0.63522855       1.27171143      -1.82896756       0.00000000
Si      -0.83686617      -2.16714015      -2.50851146       0.00000000
Si       1.93562667       2.96183151       0.38348651       0.00000000
Si      -2.63534570       2.19913371      -1.00767936       0.00000000
Si       0.92929563       3.02945130      -1.84675034       0.00000000
Si      -1.68075333       3.14069571       0.98930957       0.00000000
Si       1.35479043      -3.44127879      -0.58292989       0.00000000
