10
Lattice="16.28999089631971 0.0 0.0 0.0 16.28999089631971 0.0 0.0 0.0 34.529650657227435" Properties=species:S:1:pos:R:3:initial_magmoms:R:1 pbc="T T T"
Si      -1.35683040      -1.35581670       1.35608373       0.00000000
Si      -1.35290451       1.35661491      -1.36140130       0.00000000
Si       1.35692788      -1.35417141      -1.36015823       0.00000000
Si       1.35775541       1.35913986       1.35615279       0.00000000
Si       0.00146356      -2.71300176       2.71334146       0.00000000
Si       2.71443874       0.00099369       2.71299617       0.00000000
Si       2.71486228      -2.71319724      -0.00107042       0.00000000
Si      -2.71500915       0.00210141       2.71334146       0.00000000
Si       2.71318441       2.71526607      -0.00124307       0.00000000
Si       0.00049434       2.71637379       2.71354864       0.00000000
