10
Lattice="16.28999089631971 0.0 0.0 0.0 16.28999089631971 0.0 0.0 0.0 34.529650657227435" Properties=species:S:1:pos:R:3:initial_magmoms:R:1 pbc="T T T"
Si       1.97540685       1.10236059       0.61020833       0.00000000
Si      -1.27868355       0.75709404      -1.81346374       0.00000000
Si       1.02089430      -2.12377617      -0.19671553       0.00000000
Si      -1.08719460       0.19622934       2.09660703       0.00000000
Si       2.24536473       0.06375906       2.73440456       0.00000000
Si       2.02722534      -2.19139596       2.03352132       0.00000000
Si      -1.58915466      -2.01253176       2.63934438       0.00000000
Si       1.33234281       3.32110746       1.19893920       0.00000000
Si       2.13276825      -2.25258120      -2.31490360       0.00000000
Si      -1.74996954       3.08599389      -1.56063749       0.00000000
