10
Lattice="16.28999089631971 0.0 0.0 0.0 16.28999089631971 0.0 0.0 0.0 34.529650657227435" Properties=species:S:1:pos:R:3:initial_magmoms:R:1 pbc="T T T"
Si      -1.35495814       1.35324081       1.35819004       0.00000000
Si       1.35692605      -1.36226754       1.35777568       0.00000000
Si       1.36072162       1.34110133      -1.37608677       0.00000000
Si      -1.35486115      -1.35829278      -1.36634940       0.00000000
Si       0.04357249      -2.62824489      -2.78159972       0.00000000
Si      -2.71093849       2.70967764      -0.00597363       0.00000000
Si       0.00181796       2.71121705       2.71503342       0.00000000
Si       2.71585414       2.71202014      -0.00300408       0.00000000
Si      -2.71317022      -0.00376299       2.71527513       0.00000000
Si      -2.70916288      -2.72091870      -0.00238255       0.00000000
