10
Lattice="10.86 0.0 0.0 0.0 10.86 0.0 0.0 0.0 10.86" Properties=species:S:1:pos:R:3:initial_magmoms:R:1 pbc="T T T"
Si       1.06850454      -1.34189418       1.31340840       0.00000000
Si      -1.49049156      -1.17785388      -1.32563676       0.00000000
Si      -1.82672802       1.46899962       1.35062562       0.00000000
Si       2.30922696      -2.53758018      -0.11810250       0.00000000
Si       2.30922696       0.17741982       2.59689750       0.00000000
Si      -0.40577304      -2.53758018       2.59689750       0.00000000
Si      -0.40577304      -2.53758018      -2.83310250       0.00000000
Si      -0.40577304       2.89241982       2.59689750       0.00000000
Si      -0.20183310       2.83024632      -2.77416528       0.00000000
Si      -3.12077304      -2.53758018      -0.11810250       0.00000000
