10
Lattice="10.86 0.0 0.0 0.0 10.86 0.0 0.0 0.0 10.86" Properties=species:S:1:pos:R:3:initial_magmoms:R:1 pbc="T T T"
Si       1.42529898      -1.27654956      -1.12036104       0.00000000
Si      -1.28970102      -1.27654956       1.59463896       0.00000000
Si       1.42529898       1.43845044       1.59463896       0.00000000
Si      -2.62077864       0.05970828      -2.47546098       0.00000000
Si       0.06779898      -2.63404956      -2.47786104       0.00000000
Si      -0.18783456       2.55865944      -2.57838120       0.00000000
Si       2.78279898       0.08095044      -2.47786104       0.00000000
Si      -2.64720102      -2.63404956       0.23713896       0.00000000
Si       2.78279898      -2.63404956       0.23713896       0.00000000
Si      -2.53042344      -0.08086356       3.02614986       0.00000000
