10
Lattice="10.86 0.0 0.0 0.0 10.86 0.0 0.0 0.0 10.86" Properties=species:S:1:pos:R:3:initial_magmoms:R:1 pbc="T T T"
Si       1.09608894       1.36262592      -1.39362036       0.00000000
Si      -1.54318428      -1.21323576      -1.29154722       0.00000000
Si      -1.66921458       1.46335242       1.12624716       0.00000000
Si       2.51106006       0.06217350      -2.77393722       0.00000000
Si       2.51106006       2.77717350      -0.05893722       0.00000000
Si      -0.20393994      -2.65282650      -2.77393722       0.00000000
Si      -0.20393994       2.77717350       2.65606278       0.00000000
Si      -0.20393994       2.77717350      -2.77393722       0.00000000
Si      -2.91893994      -2.65282650      -0.05893722       0.00000000
Si      -2.91893994       0.06217350       2.65606278       0.00000000
