10
Lattice="16.28999089631971 0.0 0.0 0.0 16.28999089631971 0.0 0.0 0.0 34.54679606040008" Properties=species:S:1:pos:R:3:initial_magmoms:R:1 pbc="T T T"
Si      -0.55276500       1.15844706       1.96771751       0.00000000
Si      -1.37708787      -1.87998003       0.32515463       0.00000000
Si       1.94818072      -1.39440771      -0.07893947       0.00000000
Si      -0.78338253       1.38873879      -1.80966583       0.00000000
Si      -0.97355199      -2.69521308      -1.88604884       0.00000000
Si       1.42186711      -2.44169181      -2.13343858       0.00000000
Si      -0.50382984       3.50921528      -0.79274577       0.00000000
Si      -0.32128410      -2.80557783       2.39678896       0.00000000
Si      -2.88151824       0.82740168       2.19092448       0.00000000
Si      -3.49687299      -1.13622750       1.00752332       0.00000000
