10
Lattice="16.28999089631971 0.0 0.0 0.0 16.28999089631971 0.0 0.0 0.0 34.54679606040008" Properties=species:S:1:pos:R:3:initial_magmoms:R:1 pbc="T T T"
Si      -1.39662545       0.57772485      -1.77722637       0.00000000
Si      -1.02584876      -2.07256041       0.61451875       0.00000000
Si      -0.64033709       1.45682026       1.81978805       0.00000000
Si       2.26325604       0.07687251      -0.96081603       0.00000000
Si       3.13094289       2.08999464      -0.14502753       0.00000000
Si      -0.58415614       0.01324377       3.75472063       0.00000000
Si      -1.16514455      -3.38630004      -1.34815492       0.00000000
Si       3.55326114      -1.41431409       0.31948895       0.00000000
Si      -0.84386044      -0.58072221      -3.74494388       0.00000000
Si      -1.49035811       2.86354484      -2.19071720       0.00000000
