10
Lattice="16.28999089631971 0.0 0.0 0.0 16.28999089631971 0.0 0.0 0.0 34.54679606040008" Properties=species:S:1:pos:R:3:initial_magmoms:R:1 pbc="T T T"
Si      -1.40307399       1.25302680      -1.35359605       0.00000000
Si       1.35268902       1.36032903       1.35436644       0.00000000
Si      -1.36238157      -1.35484582       1.35035901       0.00000000
Si       1.21476159      -1.45399327      -1.41786349       0.00000000
Si      -2.08562499      -0.61939467      -2.75934539       0.00000000
Si      -0.50451759      -2.63965766      -2.66088485       0.00000000
Si       2.69687466       2.71135647      -0.01030186       0.00000000
Si       2.70629028       0.00431685       2.71250539       0.00000000
Si      -0.00659745      -2.71190984       2.71101988       0.00000000
Si      -0.00781920       2.71676475       2.71143444       0.00000000
