10
Lattice="16.28999089631971 0.0 0.0 0.0 16.28999089631971 0.0 0.0 0.0 34.54679606040008" Properties=species:S:1:pos:R:3:initial_magmoms:R:1 pbc="T T T"
Si       1.79906760       1.04501653      -1.10669756       0.00000000
Si      -1.21476159       1.45399327       1.41786349       0.00000000
Si       1.48797747      -1.27354927       1.37795501       0.00000000
Si      -1.71927918      -1.18566439      -1.24302136       0.00000000
Si       0.74938887       1.64375548      -3.13791630       0.00000000
Si      -3.30038658       0.83459860      -1.34148190       0.00000000
Si      -2.61783558       2.70702007       0.06426744       0.00000000
Si      -2.57714316       0.09914746       2.76822250       0.00000000
Si       0.13787856      -2.61465318       2.77074441       0.00000000
Si       0.13792743       2.81432230       2.77222993       0.00000000
