10
Lattice="16.28999089631971 0.0 0.0 0.0 16.28999089631971 0.0 0.0 0.0 34.54679606040008" Properties=species:S:1:pos:R:3:initial_magmoms:R:1 pbc="T T T"
Si      -1.00099022      -1.03438612      -1.88373420       0.00000000
Si       2.22401343      -0.73761490       0.43981551       0.00000000
Si      -0.03164821       2.35610764      -0.45657071       0.00000000
Si      -1.46256737      -0.34681780       1.87250649       0.00000000
Si      -3.15096071      -0.10372213      -1.45818653       0.00000000
Si      -1.18301468       1.77365869       2.88942654       0.00000000
Si       1.99070805      -3.03378814      -0.08118502       0.00000000
Si      -3.49283894      -1.00433107       0.70085124       0.00000000
Si       1.29543456       3.28546843       1.28897623       0.00000000
Si       2.95110129      -0.06848686       2.64003308       0.00000000
