10
Lattice="16.28999089631971 0.0 0.0 0.0 16.28999089631971 0.0 0.0 0.0 34.54679606040008" Properties=species:S:1:pos:R:3:initial_magmoms:R:1 pbc="T T T"
Si       1.53541395      -1.64512710      -0.46500013       0.00000000
Si      -0.58046157       0.65541186      -2.13523502       0.00000000
Si       1.23053031       1.60979409       1.18816862       0.00000000
Si      -1.99850607      -0.57694293       1.09275032       0.00000000
Si       2.09728863       0.08500122       2.74014975       0.00000000
Si      -2.70019945       1.66470768       1.45455911       0.00000000
Si      -0.65088324       2.61368163       2.22585131       0.00000000
Si       2.79080280      -1.76498892       1.47891462       0.00000000
Si      -2.17251585      -0.93717999      -2.75725043       0.00000000
Si       2.83289616      -0.68030298      -2.21977107       0.00000000
