10
Lattice="16.28999089631971 0.0 0.0 0.0 16.28999089631971 0.0 0.0 0.0 34.54679606040008" Properties=species:S:1:pos:R:3:initial_magmoms:R:1 pbc="T T T"
Si      -0.67492728       1.94280242       1.21072769       0.00000000
Si       1.19009853      -1.28804934       1.67303317       0.00000000
Si       1.99309779      -1.05299537      -0.97273468       0.00000000
Si      -2.29555422      -0.96226985       0.07213375       0.00000000
Si       0.90647334       2.05292281      -1.34632394       0.00000000
Si       3.20173434       1.12193302      -1.15040895       0.00000000
Si      -2.39857218       2.66945044      -0.24103313       0.00000000
Si      -0.61141257      -2.41347657       2.67019245       0.00000000
Si      -1.97240949       0.97797829       2.96549863       0.00000000
Si      -2.66721057      -1.18685829       2.46930272       0.00000000
