10
Lattice="16.28999089631971 0.0 0.0 0.0 16.28999089631971 0.0 0.0 0.0 34.54679606040008" Properties=species:S:1:pos:R:3:initial_magmoms:R:1 pbc="T T T"
Si       1.82522934       0.77856426      -1.20088185       0.00000000
Si      -1.83744684      -1.19583261      -0.89959907       0.00000000
Si       1.21327920      -1.26239355       1.64743398       0.00000000
Si      -1.03990473       2.15920692       0.36844179       0.00000000
Si      -2.85007396      -0.44163819       1.22554828       0.00000000
Si       2.18031876       0.60734007       2.62051413       0.00000000
Si       3.00125331       1.67961303       0.63711237       0.00000000
Si      -0.61489863      -3.23733518      -1.49722443       0.00000000
Si      -1.60081830      -0.28598724       3.25980295       0.00000000
Si      -2.27056536       0.11662011      -2.84828129       0.00000000
