10
Lattice="16.28999089631971 0.0 0.0 0.0 16.28999089631971 0.0 0.0 0.0 34.54679606040008" Properties=species:S:1:pos:R:3:initial_magmoms:R:1 pbc="T T T"
Si      -0.96703956      -1.86973362      -0.97308015       0.00000000
Si       1.50149817      -0.61846614       1.66653837       0.00000000
Si       0.82093455       1.07227296      -1.98340176       0.00000000
Si      -2.06578377       0.89233362       0.84549876       0.00000000
Si      -2.18031876      -0.60734007      -2.62051413       0.00000000
Si      -2.10789342       2.75916762      -0.63928882       0.00000000
Si       0.04970079       3.25063692      -1.60642691       0.00000000
Si      -2.45070018      -2.84102813       0.52431702       0.00000000
Si      -0.35508942       0.17122419      -3.82139598       0.00000000
Si       3.68865873      -0.79151481       0.79506041       0.00000000
