10
Lattice="16.28999089631971 0.0 0.0 0.0 16.28999089631971 0.0 0.0 0.0 34.54679606040008" Properties=species:S:1:pos:R:3:initial_magmoms:R:1 pbc="T T T"
Si       1.34418564       1.35102744      -1.36466830       0.00000000
Si      -1.35268902      -1.36032903      -1.35436644       0.00000000
Si       1.35360126      -1.35601218       1.35813895       0.00000000
Si      -1.36050822       1.35643572       1.35706800       0.00000000
Si       2.71125873      -2.71399545      -0.00670208       0.00000000
Si       2.71243161       0.00159642       2.71385963       0.00000000
Si      -0.00244350      -2.71387328       2.71417055       0.00000000
Si      -2.71507059      -2.71517485      -0.00400743       0.00000000
Si      -0.00231318       2.71622718       2.71410146       0.00000000
Si       2.71423980       2.71687878      -0.00438745       0.00000000
