10
Lattice="16.28999089631971 0.0 0.0 0.0 16.28999089631971 0.0 0.0 0.0 34.54679606040008" Properties=species:S:1:pos:R:3:initial_magmoms:R:1 pbc="T T T"
Si      -1.03136877      -1.64734254       1.31771503       0.00000000
Si       1.72356345       1.09768536       1.21747745       0.00000000
Si      -1.81154574       1.63535310      -0.12078469       0.00000000
Si       0.18337653      -1.73221344      -1.77948093       0.00000000
Si       1.85473053       0.92611908      -2.65714278       0.00000000
Si      -0.21567960      -0.02303406      -3.41444352       0.00000000
Si      -2.32816680       0.58298652      -2.47698114       0.00000000
Si      -2.36178936      -0.19958508       2.66194198       0.00000000
Si       0.37589175       2.53949697       2.63587641       0.00000000
Si      -1.71391977      -3.51976401      -0.08803431       0.00000000
