10
Lattice="16.28999089631971 0.0 0.0 0.0 16.28999089631971 0.0 0.0 0.0 34.54679606040008" Properties=species:S:1:pos:R:3:initial_magmoms:R:1 pbc="T T T"
Si       1.35679410       1.35658233      -1.35710255       0.00000000
Si      -1.35801585      -1.35775521      -1.35689527       0.00000000
Si       1.35726651      -1.35782037       1.35758620       0.00000000
Si      -1.36001952       1.35676152       1.35952083       0.00000000
Si       2.70141957       0.00167787       2.72684923       0.00000000
Si       2.71230129      -2.71616202       0.00031092       0.00000000
Si      -0.00052128       2.71414206      -2.71475785       0.00000000
Si      -2.71432288       2.71480995      -0.00089822       0.00000000
Si       2.71440270      -0.00061902      -2.71479239       0.00000000
Si       2.71450044       2.71546155      -0.00058730       0.00000000
