10
Lattice="16.28999089631971 0.0 0.0 0.0 16.28999089631971 0.0 0.0 0.0 34.54679606040008" Properties=species:S:1:pos:R:3:initial_magmoms:R:1 pbc="T T T"
Si       1.35503478      -1.35834165      -1.35727528       0.00000000
Si      -1.35726651       1.35782037      -1.35758620       0.00000000
Si       1.34415306       1.35949824       1.36926303       0.00000000
Si      -1.37202525      -1.34258922       1.38069802       0.00000000
Si       0.08115678      -2.55133980       2.79566649       0.00000000
Si       2.70946683       2.71474479       0.00355832       0.00000000
Si      -2.71353933      -2.71485882       0.00497474       0.00000000
Si       2.71378368       0.00009774      -2.71486149       0.00000000
Si      -0.00047241       2.71440270      -2.71468875       0.00000000
Si      -2.71528236       0.00006516      -2.71448147       0.00000000
