10
Lattice="16.28999089631971 0.0 0.0 0.0 16.28999089631971 0.0 0.0 0.0 34.54679606040008" Properties=species:S:1:pos:R:3:initial_magmoms:R:1 pbc="T T T"
Si      -0.63201942      -1.81071495       1.35250782       0.00000000
Si       1.19886255      -1.48610412      -1.47535630       0.00000000
Si      -1.75793535       1.13406093      -1.25456760       0.00000000
Si       1.62230481       1.23756759       1.39375672       0.00000000
Si      -1.58184045       3.09361761       0.79516405       0.00000000
Si       2.67302610      -2.42724258       0.24721701       0.00000000
Si      -0.51018651       2.37452814      -2.87087490       0.00000000
Si       3.51834678      -0.41940234       1.34318018       0.00000000
Si       2.48642415      -0.22576311      -2.96542954       0.00000000
Si      -2.32173225      -1.20164814       2.88880470       0.00000000
