10
Lattice="16.28999089631971 0.0 0.0 0.0 16.28999089631971 0.0 0.0 0.0 34.54679606040008" Properties=species:S:1:pos:R:3:initial_magmoms:R:1 pbc="T T T"
Si      -1.22404689       1.40377446      -1.41317203       0.00000000
Si      -1.24774884      -1.24046721       1.61630730       0.00000000
Si       1.68204024       1.23875676       1.18927412       0.00000000
Si       1.49097483      -1.31988096      -1.40432804       0.00000000
Si       0.21895389       2.47912623       2.62265604       0.00000000
Si      -2.63608038      -2.67809229       0.13476713       0.00000000
Si       0.51018651      -2.37452814       2.87087490       0.00000000
Si      -2.60250669       2.73759966       0.01454421       0.00000000
Si      -2.57046426       0.03520269      -2.77165645       0.00000000
Si       0.14682177      -2.67937920      -2.77359107       0.00000000
