10
Lattice="16.28999089631971 0.0 0.0 0.0 16.28999089631971 0.0 0.0 0.0 34.54679606040008" Properties=species:S:1:pos:R:3:initial_magmoms:R:1 pbc="T T T"
Si       1.43060409       1.22559444       1.40114974       0.00000000
Si      -1.92924099      -0.79257366       1.13997581       0.00000000
Si      -0.51054489       1.73571579      -1.55916687       0.00000000
Si       1.23282720      -1.90224846      -0.78490365       0.00000000
Si      -1.06248267      -2.31736653       2.69195695       0.00000000
Si       2.53547334       2.73422763      -0.09621288       0.00000000
Si       0.20380419       0.69225984      -3.67847581       0.00000000
Si       0.07537383       2.21219829       3.10503322       0.00000000
Si      -0.32687514      -3.08267073      -2.26796388       0.00000000
Si       0.52966935       3.78652905      -0.80338619       0.00000000
