10
Lattice="16.28999089631971 0.0 0.0 0.0 16.28999089631971 0.0 0.0 0.0 34.54679606040008" Properties=species:S:1:pos:R:3:initial_magmoms:R:1 pbc="T T T"
Si       0.86675832      -1.52479287       1.55198113       0.00000000
Si      -1.23053031      -1.60979409      -1.18816862       0.00000000
Si      -1.88141355       1.00388754       1.03768269       0.00000000
Si       1.92924099       0.79257366      -1.13997581       0.00000000
Si       0.30488364      -3.25492119      -1.65316876       0.00000000
Si      -1.99837575      -0.14415021       3.12130477       0.00000000
Si      -0.95847102      -2.30335713       2.75286298       0.00000000
Si       1.56027249      -3.37478301       0.29074600       0.00000000
Si       3.16206819      -1.10967480      -1.92487946       0.00000000
Si      -3.22903638      -2.18673702      -0.09541830       0.00000000
