10
Lattice="16.28999089631971 0.0 0.0 0.0 16.28999089631971 0.0 0.0 0.0 34.54679606040008" Properties=species:S:1:pos:R:3:initial_magmoms:R:1 pbc="T T T"
Si       1.83744684       1.19583261       0.89959907       0.00000000
Si      -0.43311852       1.31245272      -1.94868221       0.00000000
Si       1.22254821      -2.04150257      -0.59762536       0.00000000
Si      -1.01262712       0.75419442       2.12514735       0.00000000
Si      -2.91156776      -0.19935702      -0.34823190       0.00000000
Si      -3.05423558      -0.26430525       1.99874055       0.00000000
Si       0.79754211       3.35503953       1.26804086       0.00000000
Si      -1.47632197       3.04126155       1.93779997       0.00000000
Si       1.56538755       1.88939565      -3.04143253       0.00000000
Si       0.49546035      -2.71063061      -2.79784294       0.00000000
