10
Lattice="16.28999089631971 0.0 0.0 0.0 16.28999089631971 0.0 0.0 0.0 34.54679606040008" Properties=species:S:1:pos:R:3:initial_magmoms:R:1 pbc="T T T"
Si       1.22404689      -1.40377446       1.41317203       0.00000000
Si      -1.34641737      -1.36857177      -1.35848442       0.00000000
Si       1.37557647       1.34423451      -1.35979720       0.00000000
Si      -1.37845980       1.33382520       1.42771624       0.00000000
Si      -2.69152339      -2.72712519       0.01267868       0.00000000
Si      -2.70072073      -0.01052334      -2.71890346       0.00000000
Si       0.01226637       2.70334179      -2.71786706       0.00000000
Si      -2.71427075       2.71433754       0.03219763       0.00000000
Si       2.74067847       2.69014689       0.00514748       0.00000000
Si       2.71502172      -2.72365542       0.00884398       0.00000000
