10
Lattice="16.28999089631971 0.0 0.0 0.0 16.28999089631971 0.0 0.0 0.0 34.54679606040008" Properties=species:S:1:pos:R:3:initial_magmoms:R:1 pbc="T T T"
Si       0.44590617       2.14231419      -0.85575916       0.00000000
Si      -1.74925278       0.61690230       1.53857697       0.00000000
Si       2.05410384      -0.73754604       1.06694385       0.00000000
Si      -0.18270864      -1.19290041      -2.11882528       0.00000000
Si       1.65157794      -2.59077789      -1.75532369       0.00000000
Si       3.36901635      -1.14953643      -0.83596384       0.00000000
Si       1.95861186       0.65790423       3.02208631       0.00000000
Si      -1.73848509      -1.16901927       3.01099679       0.00000000
Si       1.88177193       1.65538980      -2.71797070       0.00000000
Si      -3.68689941       0.46729494       0.17169767       0.00000000
