10
Lattice="16.28999089631971 0.0 0.0 0.0 16.28999089631971 0.0 0.0 0.0 34.54679606040008" Properties=species:S:1:pos:R:3:initial_magmoms:R:1 pbc="T T T"
Si      -0.21980097      -0.05452263      -2.40839669       0.00000000
Si       1.85904738       1.05801921       1.15887780       0.00000000
Si      -0.88363476      -1.90146654       1.23484970       0.00000000
Si      -1.85280831       1.66275288       0.15338963       0.00000000
Si      -2.16187848      -0.39827421       2.78359034       0.00000000
Si       0.55829088       2.34763335       2.76644821       0.00000000
Si      -0.78301143       2.23852293      -2.99969998       0.00000000
Si      -1.00333368       3.48866640       1.42158215       0.00000000
Si      -3.57572505       0.94741011       1.52555770       0.00000000
Si      -2.38813029      -1.11759174      -3.10213129       0.00000000
