10
Lattice="16.28999089631971 0.0 0.0 0.0 16.28999089631971 0.0 0.0 0.0 34.54679606040008" Properties=species:S:1:pos:R:3:initial_magmoms:R:1 pbc="T T T"
Si      -1.56162456       1.14103305      -1.34486607       0.00000000
Si       1.35037584       1.35892809       1.38039401       0.00000000
Si      -1.36267479      -1.36037790       1.37769936       0.00000000
Si       1.30075650      -1.28961414      -1.60757041       0.00000000
Si      -2.41109919      -0.68488047      -2.61305858       0.00000000
Si      -0.55829088      -2.34763335      -2.76644821       0.00000000
Si       2.70047475       2.70003201      -0.01239540       0.00000000
Si       2.69904123      -2.71476108      -0.02448333       0.00000000
Si       2.70397710       0.00035838       2.73939663       0.00000000
Si      -2.74403421       2.70609242       0.00443236       0.00000000
