10
Lattice="16.28999089631971 0.0 0.0 0.0 16.28999089631971 0.0 0.0 0.0 34.54679606040008" Properties=species:S:1:pos:R:3:initial_magmoms:R:1 pbc="T T T"
Si      -1.85904738      -1.05801921      -1.15887780       0.00000000
Si      -1.30075650       1.28961414       1.60757041       0.00000000
Si       1.39828473      -1.42514694       1.58308709       0.00000000
Si       1.67378121       1.02276765      -1.66567958       0.00000000
Si       2.74571208       2.48714091       0.05008943       0.00000000
Si      -2.86238106       2.43064719       0.26270435       0.00000000
Si      -3.71185569       0.60473367      -1.00548817       0.00000000
Si       0.04961934       2.64854223       2.98796443       0.00000000
Si       2.85470847      -2.80271079       0.07792380       0.00000000
Si      -2.66343129      -0.07076376       2.98526977       0.00000000
