10
Lattice="16.28999089631971 0.0 0.0 0.0 16.28999089631971 0.0 0.0 0.0 34.54679606040008" Properties=species:S:1:pos:R:3:initial_magmoms:R:1 pbc="T T T"
Si       1.35729909      -1.35744570       1.35724074       0.00000000
Si       1.35780408       1.35649226      -1.35772439       0.00000000
Si      -1.35824391       1.35765852       1.35734438       0.00000000
Si      -1.35902583      -1.35775521      -1.35800077       0.00000000
Si      -0.00104256       2.71303338       2.71392872       0.00000000
Si      -2.71627605       0.00592956      -2.71289232       0.00000000
Si      -2.71510480      -0.00008145       2.71434328       0.00000000
Si       2.71464705       2.71485786      -0.00020728       0.00000000
Si       2.71546155      -0.00127062       2.71444692       0.00000000
Si       2.71492398      -2.71505430      -0.00017273       0.00000000
