10
Lattice="16.28999089631971 0.0 0.0 0.0 16.28999089631971 0.0 0.0 0.0 34.54679606040008" Properties=species:S:1:pos:R:3:initial_magmoms:R:1 pbc="T T T"
Si       1.40307399      -1.25302680       1.35359605       0.00000000
Si       1.03136877       1.64734254      -1.31771503       0.00000000
Si      -1.33042059       1.44775746       1.34422695       0.00000000
Si      -0.68255100      -1.87242147      -1.40574934       0.00000000
Si       1.21474530      -0.08487090      -3.09719597       0.00000000
Si      -0.78017697       3.28269564      -1.43849972       0.00000000
Si      -2.63996392      -2.57130971      -0.16175164       0.00000000
Si      -2.67012974       2.62233162      -0.19029422       0.00000000
Si       0.04069242      -2.60787262       2.70395506       0.00000000
Si       2.61783558      -2.70702007      -0.06426744       0.00000000
