10
Lattice="16.28999089631971 0.0 0.0 0.0 16.28999089631971 0.0 0.0 0.0 34.54679606040008" Properties=species:S:1:pos:R:3:initial_magmoms:R:1 pbc="T T T"
Si      -0.17692569      -2.20454199       0.73615809       0.00000000
Si      -0.74585394       0.18813321      -2.21472724       0.00000000
Si      -1.57654620       1.48217320       0.99508647       0.00000000
Si       2.11027176       0.61092387       1.02486582       0.00000000
Si       1.90477341      -1.05982740      -2.16753629       0.00000000
Si      -1.61279145      -1.71761760       2.59836962       0.00000000
Si      -0.85146201       3.45972626       0.02449369       0.00000000
Si       1.05565716       1.31356044      -3.21188652       0.00000000
Si      -0.69072858       1.74594984       3.12572676       0.00000000
Si       1.50397425       2.34149595       2.59242757       0.00000000
