10
Lattice="16.28999089631971 0.0 0.0 0.0 16.28999089631971 0.0 0.0 0.0 34.54679606040008" Properties=species:S:1:pos:R:3:initial_magmoms:R:1 pbc="T T T"
Si       1.38565998       1.28778966       1.38232172       0.00000000
Si      -0.44590617      -2.14231419       0.85575916       0.00000000
Si       1.43586576      -0.48692439      -1.86221154       0.00000000
Si      -2.20042062       1.24502841      -0.03461591       0.00000000
Si       1.61279145       1.71761760      -2.59836962       0.00000000
Si       0.03624525       3.19979080      -1.60328315       0.00000000
Si      -2.19515895      -1.52541189       2.39433613       0.00000000
Si      -0.62861481      -3.33521460      -1.26306612       0.00000000
Si       0.92206287       3.46356744       0.52735714       0.00000000
Si       0.77377500       0.76294215       3.54826886       0.00000000
