10
Lattice="16.28999089631971 0.0 0.0 0.0 16.28999089631971 0.0 0.0 0.0 34.54679606040008" Properties=species:S:1:pos:R:3:initial_magmoms:R:1 pbc="T T T"
Si      -1.29000510       1.49118660      -1.28030498       0.00000000
Si      -0.58968171      -2.03618484      -1.10325255       0.00000000
Si       2.37925224       0.25216920       0.05068018       0.00000000
Si      -0.37836783      -0.27227106       2.39340337       0.00000000
Si       0.40465989       3.05360027       1.74084857       0.00000000
Si      -0.42231825       3.50430873      -0.46451648       0.00000000
Si      -0.59494338       0.73425546      -3.53220459       0.00000000
Si       3.11818293      -1.99518291       0.38025680       0.00000000
Si       2.99113722       0.77701671      -2.11526696       0.00000000
Si       0.96415623       1.44441801       3.38914623       0.00000000
