10
Lattice="16.28999089631971 0.0 0.0 0.0 16.28999089631971 0.0 0.0 0.0 34.54679606040008" Properties=species:S:1:pos:R:3:initial_magmoms:R:1 pbc="T T T"
Si       1.35547461      -1.35368260      -1.36225002       0.00000000
Si      -1.35819504      -1.35707092       1.35710255       0.00000000
Si       1.35762489       1.35798568       1.35717164       0.00000000
Si      -1.35897696       1.35766477      -1.36349371       0.00000000
Si      -0.00047241      -2.71458178       2.71451602       0.00000000
Si       2.71415835      -2.71528225      -0.00076003       0.00000000
Si       2.71461447       0.00071471       2.71499967       0.00000000
Si      -2.71521720       0.00014920       2.71506877       0.00000000
Si       0.00045612       2.71532224       2.71496513       0.00000000
Si       2.71560816       2.71613674       0.00069094       0.00000000
