10
Lattice="16.28999089631971 0.0 0.0 0.0 16.28999089631971 0.0 0.0 0.0 34.54679606040008" Properties=species:S:1:pos:R:3:initial_magmoms:R:1 pbc="T T T"
Si      -2.13377823      -0.58104801       0.65853139       0.00000000
Si       1.10970738       0.14333571       2.03124910       0.00000000
Si       1.29300246      -1.40330042      -1.37530872       0.00000000
Si      -0.53198253       1.68406020      -1.55709406       0.00000000
Si       2.56142331      -2.55933738       0.30128278       0.00000000
Si       1.62675198       2.10129597      -2.48578155       0.00000000
Si      -2.82729240       1.26894213       1.91976653       0.00000000
Si       0.22165803      -1.69927832       3.22646527       0.00000000
Si      -3.38916708      -0.46118619      -1.28538336       0.00000000
Si      -2.09168487       0.50363793      -3.04015430       0.00000000
