10
Lattice="16.28999089631971 0.0 0.0 0.0 16.28999089631971 0.0 0.0 0.0 34.54679606040008" Properties=species:S:1:pos:R:3:initial_magmoms:R:1 pbc="T T T"
Si       1.72735902       1.02058479      -1.30700967       0.00000000
Si      -0.84532068      -2.00784024      -1.09596317       0.00000000
Si       1.29171555      -0.52030260       2.01546121       0.00000000
Si      -1.89604197       1.65696993       0.05057654       0.00000000
Si      -0.86701896      -0.93753837       2.94414870       0.00000000
Si       1.44994032      -2.93883003      -0.90004818       0.00000000
Si       0.23078043       1.75827744      -2.98577761       0.00000000
Si       1.50987123       3.13769835      -0.27098522       0.00000000
Si      -2.42672130      -2.11796064       1.46108846       0.00000000
Si      -0.75649131       3.32469126      -1.29775112       0.00000000
