10
Lattice="16.28999089631971 0.0 0.0 0.0 16.28999089631971 0.0 0.0 0.0 34.54679606040008" Properties=species:S:1:pos:R:3:initial_magmoms:R:1 pbc="T T T"
Si       0.92986578      -1.92114486      -1.08490819       0.00000000
Si      -2.37444669      -0.73995696      -0.17781246       0.00000000
Si      -0.30475332       0.32148315       2.59242757       0.00000000
Si       0.07874586       2.10483090      -1.61050344       0.00000000
Si       3.13502679       0.53423055      -0.06290975       0.00000000
Si       2.39459742       2.04794622      -1.76703506       0.00000000
Si      -0.59948829      -2.48520240      -2.81815646       0.00000000
Si      -1.36518345       3.59891712      -0.48894108       0.00000000
Si      -2.24684712       1.93440492       2.60078790       0.00000000
Si      -3.87283347       1.05187788       0.23422741       0.00000000
