10
Lattice="16.28999089631971 0.0 0.0 0.0 16.28999089631971 0.0 0.0 0.0 34.54679606040008" Properties=species:S:1:pos:R:3:initial_magmoms:R:1 pbc="T T T"
Si       1.35553977       1.35721764       1.35748256       0.00000000
Si       1.35707103      -1.35721764      -1.35724074       0.00000000
Si      -1.35778779       1.35778779      -1.35734438       0.00000000
Si      -1.35769005      -1.35814617       1.35813895       0.00000000
Si      -0.00050499       2.71409319       2.71282322       0.00000000
Si      -0.00058644       2.71485882      -2.71347961       0.00000000
Si       2.71467963       2.71487511       0.00013819       0.00000000
Si      -2.71557558       0.00021177      -2.71451602       0.00000000
Si       2.71495656      -2.71536381       0.00024183       0.00000000
Si       2.71542897       0.00164529      -2.71499967       0.00000000
