10
Lattice="16.28999089631971 0.0 0.0 0.0 16.28999089631971 0.0 0.0 0.0 34.54679606040008" Properties=species:S:1:pos:R:3:initial_magmoms:R:1 pbc="T T T"
Si       1.46582307       1.79274708      -0.42205844       0.00000000
Si       0.21748779      -2.11711356      -1.03602445       0.00000000
Si       0.63879606      -0.20046474       2.31090557       0.00000000
Si      -2.26636254       0.18699291      -1.02676590       0.00000000
Si      -0.48055500       3.16001565      -0.39804841       0.00000000
Si      -1.27909080      -1.37942091      -2.71479239       0.00000000
Si       1.81618839       0.90740187      -2.63101636       0.00000000
Si       2.30075073       1.48945986       1.90556779       0.00000000
Si      -1.50987123      -3.13769835       0.27098522       0.00000000
Si      -3.40591320      -1.48072842       0.32156176       0.00000000
