10
Lattice="16.28999089631971 0.0 0.0 0.0 16.28999089631971 0.0 0.0 0.0 34.54679606040008" Properties=species:S:1:pos:R:3:initial_magmoms:R:1 pbc="T T T"
Si      -1.65907134       0.66336138      -1.47335258       0.00000000
Si       1.00926324       1.46087091       1.54693181       0.00000000
Si      -1.64142927      -1.30538286       1.38331464       0.00000000
Si       2.30490468      -0.80448165      -1.64449751       0.00000000
Si       2.33471538       0.07881102       2.94216022       0.00000000
Si       2.64554487      -2.70083313      -0.18980020       0.00000000
Si      -2.82235653       2.52009558      -0.36028874       0.00000000
Si       1.94373909       3.30338394       0.16693021       0.00000000
Si      -0.36461907      -2.63761164       2.90697084       0.00000000
Si      -1.80848322      -1.70194662      -3.11114800       0.00000000
