10
Lattice="16.28999089631971 0.0 0.0 0.0 16.28999089631971 0.0 0.0 0.0 34.54679606040008" Properties=species:S:1:pos:R:3:initial_magmoms:R:1 pbc="T T T"
Si      -0.41155056      -2.22448095       0.82331970       0.00000000
Si      -2.24471313       0.43238547      -0.93186580       0.00000000
Si       0.15571611       0.17910855      -2.46719537       0.00000000
Si      -0.26213868       0.14082705       2.46111513       0.00000000
Si       2.62413981       0.27448650      -0.77567965       0.00000000
Si      -2.14922115      -0.96306480      -2.88700827       0.00000000
Si       1.03237875      -3.71856717      -0.29824266       0.00000000
Si      -3.77848179      -1.08776475       0.02998664       0.00000000
Si      -2.51476875      -3.02866938       0.06622625       0.00000000
Si      -0.12308724       2.47254507      -3.08831256       0.00000000
