10
Lattice="16.28999089631971 0.0 0.0 0.0 16.28999089631971 0.0 0.0 0.0 34.54679606040008" Properties=species:S:1:pos:R:3:initial_magmoms:R:1 pbc="T T T"
Si       1.35606125       1.35751086       1.35724074       0.00000000
Si      -1.35683367       1.35769005      -1.35765530       0.00000000
Si      -1.35945636      -1.35713293       1.35575522       0.00000000
Si       1.35745567      -1.35729257      -1.35765530       0.00000000
Si      -2.71484952       0.00123804       2.70988674       0.00000000
Si       2.71282277      -0.00022806      -2.71555242       0.00000000
Si      -2.71387212       0.00102627      -2.71461966       0.00000000
Si      -0.00039459       2.71463076      -2.71448147       0.00000000
Si      -2.71486581      -2.71439576      -0.00031092       0.00000000
Si       2.71494047      -2.71452287      -0.00038001       0.00000000
