10
Lattice="16.28999089631971 0.0 0.0 0.0 16.28999089631971 0.0 0.0 0.0 34.54679606040008" Properties=species:S:1:pos:R:3:initial_magmoms:R:1 pbc="T T T"
Si      -1.60529805      -1.28726838      -1.21037328       0.00000000
Si       1.34956134      -1.29332826       1.54985996       0.00000000
Si       1.40550057       1.30846167      -1.52126007       0.00000000
Si      -1.36119240       1.40879178       1.54500959       0.00000000
Si       2.70779289       2.57429241       0.04132145       0.00000000
Si       2.73795871      -2.61934892       0.06986402       0.00000000
Si      -2.70462870      -2.68092512       0.24150642       0.00000000
Si      -2.65776237       2.79858942       0.03529994       0.00000000
Si      -0.01425375      -2.65656180       2.93805810       0.00000000
Si       2.70104557       0.06263505       2.94078729       0.00000000
