10
Lattice="16.28999089631971 0.0 0.0 0.0 16.28999089631971 0.0 0.0 0.0 34.54679606040008" Properties=species:S:1:pos:R:3:initial_magmoms:R:1 pbc="T T T"
Si       1.35136953       1.35136953       1.34442387       0.00000000
Si      -1.35534429       1.35682668      -1.35295693       0.00000000
Si       1.35539316      -1.35837097      -1.35413152       0.00000000
Si      -1.35801585      -1.35340252       1.36453011       0.00000000
Si      -0.12108357       2.52470565       2.72246178       0.00000000
Si       2.58147630      -0.01120752       2.75117019       0.00000000
Si       0.06687045      -2.56068277       2.81141983       0.00000000
Si       0.00029322       2.71378368      -2.71019767       0.00000000
Si      -2.71226871       2.71212210       0.00594205       0.00000000
Si      -2.71417464      -0.00102627      -2.71023221       0.00000000
