10
Lattice="16.28999089631971 0.0 0.0 0.0 16.28999089631971 0.0 0.0 0.0 34.54679606040008" Properties=species:S:1:pos:R:3:initial_magmoms:R:1 pbc="T T T"
Si       1.24774884       1.24046721      -1.61630730       0.00000000
Si       1.75793535      -1.13406093       1.25456760       0.00000000
Si      -1.38833154      -1.43762508      -1.48154018       0.00000000
Si      -1.96230969       1.45448523       1.35285329       0.00000000
Si       0.17609490       1.95955668       2.04973165       0.00000000
Si       2.92978908       2.47922397      -0.42703318       0.00000000
Si       2.95679790      -2.62016505      -0.22078870       0.00000000
Si      -2.91958502       2.66659155      -0.34622818       0.00000000
Si       0.02370195       2.64424167      -3.02947933       0.00000000
Si      -2.66782145      -0.08288352      -3.01680065       0.00000000
