10
Lattice="16.28999089631971 0.0 0.0 0.0 16.28999089631971 0.0 0.0 0.0 34.54679606040008" Properties=species:S:1:pos:R:3:initial_magmoms:R:1 pbc="T T T"
Si      -0.86364693       1.62349561       1.45300451       0.00000000
Si      -0.04116483      -0.32224878      -2.34949437       0.00000000
Si       1.86461856      -1.01888819       1.41959774       0.00000000
Si      -2.51268363       0.59774689      -0.09583287       0.00000000
Si       2.42456029      -2.22715807      -0.50324346       0.00000000
Si       2.36837934      -0.78358158      -2.43817604       0.00000000
Si      -1.96297758       0.22983887       2.90488421       0.00000000
Si      -2.84022666      -1.57016608       1.52126901       0.00000000
Si      -0.32205330       1.88183872      -3.20380256       0.00000000
Si      -1.02444552      -3.30143470       1.47504538       0.00000000
