10
Lattice="16.28999089631971 0.0 0.0 0.0 16.28999089631971 0.0 0.0 0.0 34.54679606040008" Properties=species:S:1:pos:R:3:initial_magmoms:R:1 pbc="T T T"
Si      -1.36319607      -1.36458072       1.33823999       0.00000000
Si      -1.35643572       1.35593073      -1.35917536       0.00000000
Si       1.35634517      -1.35967743      -1.35882989       0.00000000
Si       1.36871742       1.35441576       1.37140493       0.00000000
Si      -0.08348625       2.61135216       2.74629909       0.00000000
Si      -2.71300176       2.71355562       0.00145097       0.00000000
Si       2.71382345       2.71296918       0.00024183       0.00000000
Si       0.00096110       2.71298547      -2.71686520       0.00000000
Si      -2.71456560      -2.71595025      -0.00618388       0.00000000
Si      -2.71427238      -0.00216657      -2.71638155       0.00000000
