10
Lattice="16.28999089631971 0.0 0.0 0.0 16.28999089631971 0.0 0.0 0.0 34.54679606040008" Properties=species:S:1:pos:R:3:initial_magmoms:R:1 pbc="T T T"
Si      -2.31585156       0.05688468       0.15653162       0.00000000
Si       0.66582117       2.24024967       0.22317243       0.00000000
Si       0.92085741      -0.95589720      -1.98948200       0.00000000
Si       0.74042937      -1.51371567       1.70412531       0.00000000
Si       2.39536305       2.17520370      -1.42826899       0.00000000
Si       1.37344248       0.98673417      -3.15291510       0.00000000
Si      -2.39459742      -2.04794622       1.76703506       0.00000000
Si       2.29553793      -2.84763861       0.49177392       0.00000000
Si       0.35360703       2.44843587       2.74474448       0.00000000
Si      -3.17448117      -0.39516282      -1.94899314       0.00000000
