10
Lattice="16.28999089631971 0.0 0.0 0.0 16.28999089631971 0.0 0.0 0.0 34.54679606040008" Properties=species:S:1:pos:R:3:initial_magmoms:R:1 pbc="T T T"
Si      -1.38991167       1.80968868      -0.54407780       0.00000000
Si      -0.66582117      -2.24024967      -0.22317243       0.00000000
Si       1.72954188      -0.06504597      -1.65144141       0.00000000
Si      -0.31221414       0.20818620       2.52157205       0.00000000
Si       1.54681695       1.69709220       2.65716830       0.00000000
Si       0.06291198       3.61439262       0.09648926       0.00000000
Si       0.70762131      -1.25351550      -3.37608753       0.00000000
Si      -2.98167273      -2.18336499      -0.06664081       0.00000000
Si      -1.56128247       1.72874367      -2.92373153       0.00000000
Si       0.25503624      -3.19614687      -2.21265443       0.00000000
