10
Lattice="16.28999089631971 0.0 0.0 0.0 16.28999089631971 0.0 0.0 0.0 34.54679606040008" Properties=species:S:1:pos:R:3:initial_magmoms:R:1 pbc="T T T"
Si       0.58033125       1.93139127      -1.21369872       0.00000000
Si       0.17137080       0.08094501       2.37965374       0.00000000
Si       0.35285769      -1.98125496      -1.29806204       0.00000000
Si      -2.29705290      -0.01443294       0.68813802       0.00000000
Si      -1.59335748       2.17261359      -2.07474354       0.00000000
Si      -2.57585625       2.27900358       0.06702082       0.00000000
Si       2.70011637       1.18763874      -1.89606741       0.00000000
Si       1.56128247      -1.72874367       2.92373153       0.00000000
Si       3.75592014       0.26204094       0.17556692       0.00000000
Si      -1.63861110      -3.19049424      -1.17272619       0.00000000
