10
Lattice="16.28999089631971 0.0 0.0 0.0 16.28999089631971 0.0 0.0 0.0 34.54679606040008" Properties=species:S:1:pos:R:3:initial_magmoms:R:1 pbc="T T T"
Si      -0.06442695      -0.65243079      -2.24067190       0.00000000
Si       0.99277776       1.73053557       1.38722737       0.00000000
Si      -2.46166335       0.47543994       0.20534627       0.00000000
Si       2.03033673      -1.29132459       0.81689400       0.00000000
Si       3.14274825       0.79987158       0.96167970       0.00000000
Si       1.05733503      -1.48100535       3.00892398       0.00000000
Si      -0.81039492      -2.73158865       2.27853521       0.00000000
Si       0.65089953       0.82992663       3.54626514       0.00000000
Si      -0.99370629       0.80275491      -3.75786439       0.00000000
Si      -2.56337811      -2.85795018      -1.30825335       0.00000000
