10
Lattice="16.28999089631971 0.0 0.0 0.0 16.28999089631971 0.0 0.0 0.0 34.54679606040008" Properties=species:S:1:pos:R:3:initial_magmoms:R:1 pbc="T T T"
Si      -2.11978512       0.74375253       0.68236870       0.00000000
Si       1.37708787       1.87998003      -0.32515463       0.00000000
Si       0.40353588      -0.81523305      -2.21120346       0.00000000
Si       1.05580377      -0.92559780       2.07163433       0.00000000
Si       3.32526860       0.48557232      -0.40409410       0.00000000
Si      -2.70011637      -1.18763874       1.89606741       0.00000000
Si       0.82432287       3.03842709       1.64256288       0.00000000
Si      -1.50443037       2.70738171       1.86576986       0.00000000
Si       3.24688112      -1.13940405       1.26914636       0.00000000
Si       2.79895499      -0.56171178      -2.45859321       0.00000000
