10
Lattice="16.28999089631971 0.0 0.0 0.0 16.28999089631971 0.0 0.0 0.0 34.54679606040008" Properties=species:S:1:pos:R:3:initial_magmoms:R:1 pbc="T T T"
Si       1.73007945       0.81547740       1.41400257       0.00000000
Si       1.41164253      -0.40407345      -1.97017033       0.00000000
Si      -0.93447585      -1.84251303       1.38000160       0.00000000
Si      -1.81578114       1.73126862       0.04622364       0.00000000
Si       0.40943286       2.19938618       2.77682262       0.00000000
Si      -2.33233704      -0.51965100       2.75726221       0.00000000
Si       2.88906408       2.28254651      -0.05544764       0.00000000
Si       1.02444552       3.30143470      -1.47504538       0.00000000
Si       2.22019668      -2.61895959      -1.67583147       0.00000000
Si      -1.94373909      -3.30338394      -0.16693021       0.00000000
