10
Lattice="16.28999089631971 0.0 0.0 0.0 16.28999089631971 0.0 0.0 0.0 34.54679606040008" Properties=species:S:1:pos:R:3:initial_magmoms:R:1 pbc="T T T"
Si       2.04746729       0.36131220      -1.13548473       0.00000000
Si       0.44717353      -0.04701294       2.32952631       0.00000000
Si      -0.93132929      -2.11328541      -0.54532148       0.00000000
Si      -1.63051238       1.71528813      -0.54387051       0.00000000
Si       1.56950240       2.11471893       2.31802222       0.00000000
Si      -2.65243295       0.52681860      -2.26851663       0.00000000
Si       2.97407507       1.92099825       0.39621743       0.00000000
Si      -3.10501802      -1.41581277      -1.10508353       0.00000000
Si       1.13630243       1.29422421      -3.16455738       0.00000000
Si       0.08728345      -2.96346051      -2.54409658       0.00000000
