10
Lattice="16.28999089631971 0.0 0.0 0.0 16.28999089631971 0.0 0.0 0.0 34.54679606040008" Properties=species:S:1:pos:R:3:initial_magmoms:R:1 pbc="T T T"
Si       1.36661371      -1.75210353       0.73629628       0.00000000
Si      -0.44717353       0.04701294      -2.32952631       0.00000000
Si       1.12232887       2.16173187      -0.01150409       0.00000000
Si      -1.97913141      -0.83914677       1.37067945       0.00000000
Si      -0.38900031      -3.55455945       0.62395003       0.00000000
Si       1.88323477      -0.69973695       3.09249272       0.00000000
Si       2.52690154       1.96801119      -1.93330888       0.00000000
Si      -1.37850282      -2.06627247      -2.87484779       0.00000000
Si       1.60029376       0.40832514      -3.46501103       0.00000000
Si      -0.48012983       3.91328154      -0.14969135       0.00000000
