10
Lattice="16.28999089631971 0.0 0.0 0.0 16.28999089631971 0.0 0.0 0.0 34.54679606040008" Properties=species:S:1:pos:R:3:initial_magmoms:R:1 pbc="T T T"
Si      -1.41384657       1.34568432      -1.25803265       0.00000000
Si      -1.35756950      -1.32644583       1.36373554       0.00000000
Si       1.35749457       1.38552966       1.36055723       0.00000000
Si       1.27824372      -1.50319233      -1.54874064       0.00000000
Si       0.30907017       2.06102709      -2.63020071       0.00000000
Si       2.16187848       0.39827421      -2.78359034       0.00000000
Si      -2.72051028      -0.08847099      -2.44614219       0.00000000
Si       2.72209158      -2.67664248      -0.02506371       0.00000000
Si      -0.00703728      -2.68232769       2.72083808       0.00000000
Si      -2.70029475      -2.70438435      -0.00651207       0.00000000
