10
Lattice="16.28999089631971 0.0 0.0 0.0 16.28999089631971 0.0 0.0 0.0 34.54679606040008" Properties=species:S:1:pos:R:3:initial_magmoms:R:1 pbc="T T T"
Si      -1.30666372      -1.43415531      -1.18810955       0.00000000
Si      -1.31151020       1.40887323       1.27436983       0.00000000
Si       1.72291674       0.71534277      -1.37216807       0.00000000
Si       1.41384657      -1.34568432       1.25803265       0.00000000
Si       2.57239137       2.54125629      -0.10397555       0.00000000
Si      -2.66177201       0.04338027       2.62135362       0.00000000
Si       0.05627706      -2.67213015       2.62176818       0.00000000
Si       0.71111226       1.30929246      -3.45544644       0.00000000
Si       0.05107404       2.76532524       2.62425555       0.00000000
Si       2.77134114       0.03984534       2.61858988       0.00000000
