10
Lattice="16.28999089631971 0.0 0.0 0.0 16.28999089631971 0.0 0.0 0.0 34.54679606040008" Properties=species:S:1:pos:R:3:initial_magmoms:R:1 pbc="T T T"
Si       0.95727533      -1.21210632       1.69908147       0.00000000
Si      -1.20044009      -1.49253867      -1.29567831       0.00000000
Si       1.56482717       1.31147532      -1.25553491       0.00000000
Si      -2.47663127      -0.03244968      -2.67333621       0.00000000
Si       0.22901622       2.69198766      -2.65105352       0.00000000
Si       0.25176358      -2.74947507      -2.67057247       0.00000000
Si      -0.56806651      -2.00629269       3.30809940       0.00000000
Si       2.91311789       2.62352079       0.29651532       0.00000000
Si       2.91958502      -2.66659155       0.34622818       0.00000000
Si       3.09567992      -0.70703487       2.39595983       0.00000000
