10
Lattice="16.28999089631971 0.0 0.0 0.0 16.28999089631971 0.0 0.0 0.0 34.54679606040008" Properties=species:S:1:pos:R:3:initial_magmoms:R:1 pbc="T T T"
Si      -1.33581095       1.38051234      -1.39551861       0.00000000
Si       1.37845980      -1.33382520      -1.42771624       0.00000000
Si      -1.56482717      -1.31147532       1.25553491       0.00000000
Si       1.34829072       1.31204547       1.55205023       0.00000000
Si       2.67519267       2.59766856      -0.04294169       0.00000000
Si       2.60250669      -2.73759966      -0.01454421       0.00000000
Si       2.82146058      -0.25847343       2.60811183       0.00000000
Si      -2.67993494       0.01174509      -2.78654613       0.00000000
Si       0.03204243      -2.70239697      -2.78620066       0.00000000
Si       0.03179808       2.73022029      -2.78326418       0.00000000
