10
Lattice="16.28999089631971 0.0 0.0 0.0 16.28999089631971 0.0 0.0 0.0 34.54679606040008" Properties=species:S:1:pos:R:3:initial_magmoms:R:1 pbc="T T T"
Si       2.14991805       0.58365441       0.78697645       0.00000000
Si      -0.76992502      -2.04597513       0.89669714       0.00000000
Si      -1.35970447       1.72651194       0.87721274       0.00000000
Si      -3.17211358      -1.51066944       1.05568158       0.00000000
Si      -1.71627628       1.06479585      -3.23520562       0.00000000
Si       3.06401511       2.03416488      -1.40788637       0.00000000
Si      -0.24729295       3.81770811       1.02199844       0.00000000
Si       0.54332169      -3.92406552      -0.21477755       0.00000000
Si       0.19569146      -2.59276527       3.01044404       0.00000000
Si       3.48683835      -1.10951190       1.88325055       0.00000000
