10
Lattice="16.28999089631971 0.0 0.0 0.0 16.28999089631971 0.0 0.0 0.0 34.54679606040008" Properties=species:S:1:pos:R:3:initial_magmoms:R:1 pbc="T T T"
Si      -1.35606125      -1.35751086      -1.35724074       0.00000000
Si      -1.35634517       1.35967743       1.35882989       0.00000000
Si       1.35948195       1.35812988      -1.35734438       0.00000000
Si       1.36122498      -1.35679410       1.36211184       0.00000000
Si      -2.71954124      -0.00490329       2.69706988       0.00000000
Si      -2.71289492       0.00017919      -2.71489603       0.00000000
Si      -2.71278089       2.71560816      -0.00034547       0.00000000
Si       0.00139442      -2.71480343      -2.71489603       0.00000000
Si       0.00189453       2.71492398      -2.71506877       0.00000000
Si      -2.71551761      -2.71464379      -0.00148551       0.00000000
