10
Lattice="16.28999089631971 0.0 0.0 0.0 16.28999089631971 0.0 0.0 0.0 34.54679606040008" Properties=species:S:1:pos:R:3:initial_magmoms:R:1 pbc="T T T"
Si       0.96049098      -1.32841692      -1.81847527       0.00000000
Si       2.43670707       0.87053760       0.27744547       0.00000000
Si      -1.78842046       1.40976918      -1.38301266       0.00000000
Si      -0.91409706      -1.45051047       2.19486282       0.00000000
Si       2.43366084      -2.89893582      -0.76241367       0.00000000
Si      -3.06401511      -2.03416488       1.40788637       0.00000000
Si       2.19589200       3.09496546       1.15147990       0.00000000
Si      -2.80260490       2.79432144       0.36934000       0.00000000
Si       3.81576960      -1.13003730       0.33918063       0.00000000
Si       2.28739293      -0.04279383      -3.41346719       0.00000000
