10
Lattice="10.86 0.0 0.0 0.0 10.86 0.0 0.0 0.0 10.86" Properties=species:S:1:pos:R:3:initial_magmoms:R:1 pbc="T T T"
Si       1.35750000       1.35750000       1.35750000       0.00000000
Si      -1.35750000       1.35750000      -1.35750000       0.00000000
Si      -1.35750000      -1.35750000       1.35750000       0.00000000
Si       1.35750000      -1.35750000      -1.35750000       0.00000000
Si      -0.76104708       1.85334588       2.40530538       0.00000000
Si      -2.62491630      -0.23406558      -2.58671082       0.00000000
Si       0.07818114      -2.44429278      -2.82913860       0.00000000
Si       2.81581338       0.20650290       2.52636180       0.00000000
Si       2.79804642      -0.11407344      -2.56261248       0.00000000
Si       2.71500000       2.71500000       0.00000000       0.00000000
