10
Lattice="10.86 0.0 0.0 0.0 10.86 0.0 0.0 0.0 10.86" Properties=species:S:1:pos:R:3:initial_magmoms:R:1 pbc="T T T"
Si      -1.44758370      -1.12343442       1.22921082       0.00000000
Si       1.26741630       1.59156558       1.22921082       0.00000000
Si       1.48023972      -0.89805684      -1.72515444       0.00000000
Si      -1.44758370       1.59156558      -1.48578918       0.00000000
Si       2.70309744      -2.21022720      -0.24242778       0.00000000
Si      -0.09008370      -2.48093442       2.58671082       0.00000000
Si       2.62491630       0.23406558       2.58671082       0.00000000
Si      -2.80508370      -2.48093442      -0.12828918       0.00000000
Si      -2.80508370       0.23406558       2.58671082       0.00000000
Si       1.55937654       0.79041252      -3.47350584       0.00000000
