10
Lattice="16.290000149 0.0 0.0 0.0 16.290000149 0.0 0.0 0.0 29.1751946751" Properties=species:S:1:pos:R:3:initial_magmoms:R:1 pbc="T T T"
Si      -1.34257294      -1.37780821       1.31539283       0.00000000
Si       1.30510594      -1.34695495      -1.42908856       0.00000000
Si       1.23090499       1.43698653       1.41998590       0.00000000
Si      -1.40098888       1.34160043      -1.35778438       0.00000000
Si       0.20582415      -2.70453098       2.49404152       0.00000000
Si       2.64551231       2.71979471       0.04332516       0.00000000
Si      -2.70888041      -0.00746082       2.65806446       0.00000000
Si      -0.28895202       2.75191860       2.62153712       0.00000000
Si       2.65948913       0.00882918      -2.76181145       0.00000000
Si      -0.06569757       2.70581789      -2.72560504       0.00000000
