10
Lattice="16.290000149 0.0 0.0 0.0 16.290000149 0.0 0.0 0.0 29.1751946751" Properties=species:S:1:pos:R:3:initial_magmoms:R:1 pbc="T T T"
Si       1.62675199      -0.21527235      -1.66254847       0.00000000
Si      -0.40876497       2.29298368      -0.26651540       0.00000000
Si       0.24838992      -0.49598163       2.30814826       0.00000000
Si      -1.91286956      -1.28738242      -0.62741256       0.00000000
H        1.33174009      -2.20221254       1.52638784       0.00000000
H       -2.83574694      -0.51761475      -1.55912240       0.00000000
Si      -1.49104000       1.04816377       2.76895354       0.00000000
Si       0.05582583      -0.95814523      -3.26272037       0.00000000
Si      -2.32310063       2.29054507       1.05471246       0.00000000
Si      -0.86501530      -2.78128947      -2.07943283       0.00000000
