10
Lattice="16.290000149 0.0 0.0 0.0 16.290000149 0.0 0.0 0.0 29.1751946751" Properties=species:S:1:pos:R:3:initial_magmoms:R:1 pbc="T T T"
Si      -0.52698150       0.24650028      -2.24783643       0.00000000
Si       0.82425772       1.87235633       1.14265963       0.00000000
Si      -1.87248665      -0.80345539       1.17376622       0.00000000
Si       1.64416601      -1.72428023       0.03197747       0.00000000
Si       2.20330397       0.60255082       2.55097545       0.00000000
Si      -0.65590057      -2.19903599       2.59904450       0.00000000
Si      -0.47574945      -2.01754910      -3.00563293       0.00000000
Si      -2.19967130       1.91036090      -2.20801228       0.00000000
Si       1.72599068      -2.39446712      -2.20693280       0.00000000
Si       0.65761102      -3.51250522       1.18660331       0.00000000
