10
Lattice="16.290000149 0.0 0.0 0.0 16.290000149 0.0 0.0 0.0 29.1751946751" Properties=species:S:1:pos:R:3:initial_magmoms:R:1 pbc="T T T"
Si       1.22956921      -1.52651962       1.23924557       0.00000000
Si      -1.38668626      -1.35262387      -1.29371566       0.00000000
Si      -1.05956677       1.46157139       1.47982422       0.00000000
Si       1.37039626       1.31714425      -1.36213149       0.00000000
Si       0.75179980       2.20118627       2.86573350       0.00000000
Si      -2.37003212       0.10339263       2.86800916       0.00000000
Si      -0.02485854       2.59946048      -2.72137463       0.00000000
Si      -0.03021795      -2.69944850      -2.63098988       0.00000000
Si      -2.50411511       2.81698086       0.19693256       0.00000000
Si      -2.74506051       0.00490329      -2.59495852       0.00000000
