10
Lattice="16.290000149 0.0 0.0 0.0 16.290000149 0.0 0.0 0.0 29.1751946751" Properties=species:S:1:pos:R:3:initial_magmoms:R:1 pbc="T T T"
Si      -0.70310899       2.04589696       0.75505404       0.00000000
Si       2.03449070      -0.61907376       0.93818674       0.00000000
Si      -1.26105778      -1.77339132       0.83134717       0.00000000
Si      -0.66394783      -0.67428546      -2.13603270       0.00000000
Si      -0.71345314      -2.82170170      -1.16263151       0.00000000
H        0.65987533       2.31062575      -2.09944701       0.00000000
Si      -1.29256264       1.43243184       2.92303358       0.00000000
Si       1.07443954       3.52265063       0.41277065       0.00000000
Si      -3.56325834       0.80266044      -0.72774606       0.00000000
Si       1.49507992      -1.88771454       2.86459566       0.00000000
