10
Lattice="16.290000149 0.0 0.0 0.0 16.290000149 0.0 0.0 0.0 29.1751946751" Properties=species:S:1:pos:R:3:initial_magmoms:R:1 pbc="T T T"
Si       1.36671472       1.34741107       1.34150463       0.00000000
Si       1.44203968      -1.33222391      -1.28318341       0.00000000
Si      -1.34838847      -1.38771416       1.33601969       0.00000000
Si      -1.37919286       1.33938010      -1.35755098       0.00000000
Si       0.11668527      -2.66916377      -2.61982453       0.00000000
Si       0.03036456       2.74532115      -2.61357812       0.00000000
Si       0.00457749       2.69656517       2.69117831       0.00000000
Si      -2.70954830      -0.02507031       2.68254245       0.00000000
Si       2.69477327      -0.03394836       2.70025179       0.00000000
Si      -2.79881751      -0.08860131      -2.59475429       0.00000000
