10
Lattice="16.290000149 0.0 0.0 0.0 16.290000149 0.0 0.0 0.0 29.1751946751" Properties=species:S:1:pos:R:3:initial_magmoms:R:1 pbc="T T T"
Si       1.72147835      -0.74539783      -1.38191227       0.00000000
Si       1.35148357       1.35158131       1.34313844       0.00000000
Si      -1.41782134       1.18737811      -1.45840963       0.00000000
Si      -1.20706621      -1.68663404       1.18252899       0.00000000
Si      -1.64907744      -0.65717119      -2.90053950       0.00000000
Si       2.54055584      -2.59077791      -0.23319733       0.00000000
Si       0.66533248      -0.83162080      -3.49352534       0.00000000
Si      -2.66014448      -0.41194152       2.53450751       0.00000000
Si      -0.09461232       2.54674604       2.69481587       0.00000000
Si      -2.89051392       2.37343673      -0.11054481       0.00000000
