10
Lattice="16.290000149 0.0 0.0 0.0 16.290000149 0.0 0.0 0.0 29.1751946751" Properties=species:S:1:pos:R:3:initial_magmoms:R:1 pbc="T T T"
H       -1.04194099      -1.09564912       0.21516706       0.00000000
Si       1.48816319      -1.08129763      -1.42086116       0.00000000
Si       1.16309787      -0.16026102       2.01994460       0.00000000
Si      -1.26320806       1.63330057      -1.15837193       0.00000000
H       -1.56761929       0.44224092       2.03762477       0.00000000
Si      -0.01444923      -2.20949417       2.61581878       0.00000000
Si      -2.56461617      -0.03336192      -2.33442403       0.00000000
Si      -2.02600361      -0.84502747       2.69097408       0.00000000
Si       0.05828562      -2.51542037      -2.58643936       0.00000000
Si       3.05007447      -2.15668199      -0.05114412       0.00000000
