10
Lattice="16.290000149 0.0 0.0 0.0 16.290000149 0.0 0.0 0.0 29.1751946751" Properties=species:S:1:pos:R:3:initial_magmoms:R:1 pbc="T T T"
Si      -1.34451145       1.27982386       1.46033519       0.00000000
Si      -1.37238364      -1.40631571      -1.31041554       0.00000000
Si       1.33861447      -1.33530760       1.42249497       0.00000000
Si       1.34021089       1.41709969      -1.36089154       0.00000000
Si       2.66424581      -0.02728575      -2.67480811       0.00000000
Si      -2.67915116      -2.69610905       0.15976337       0.00000000
Si       0.05553261      -2.77866678      -2.59914807       0.00000000
Si      -2.77674456       2.60286509       0.18132383       0.00000000
Si      -2.72355770      -0.03704346      -2.67617934       0.00000000
Si       2.68768712       2.75095749       0.02640355       0.00000000
