10
Lattice="16.290000149 0.0 0.0 0.0 16.290000149 0.0 0.0 0.0 29.1751946751" Properties=species:S:1:pos:R:3:initial_magmoms:R:1 pbc="T T T"
Si      -0.89598259       0.90973135      -0.80625650       0.00000000
Si       0.91201195      -1.55271394       1.49712511       0.00000000
H       -2.00683028      -0.32923719       1.43865802       0.00000000
Si       1.93473074       0.60048199       1.87733625       0.00000000
Si       1.88934680      -1.95420543      -0.65670446       0.00000000
Si      -1.39536883      -1.63897601       1.86773761       0.00000000
Si      -2.21068334      -0.55618948      -2.08328395       0.00000000
Si       0.45488196       2.22062024      -2.19091124       0.00000000
Si      -2.03089061       2.34004223       0.65792982       0.00000000
Si       3.07113744       2.04672449       0.34204998       0.00000000
