10
Lattice="16.290000149 0.0 0.0 0.0 16.290000149 0.0 0.0 0.0 29.1751946751" Properties=species:S:1:pos:R:3:initial_magmoms:R:1 pbc="T T T"
Si       1.25820703       1.37657017      -1.41801205       0.00000000
Si      -0.82425772      -1.87235633      -1.14265963       0.00000000
Si       1.37904625      -1.26980551       1.40831582       0.00000000
Si      -1.43083216       1.37516923       1.28761221       0.00000000
Si      -0.05027094      -2.66023847       2.68923524       0.00000000
Si      -2.69674436      -2.67581171       0.03110659       0.00000000
Si       2.66230730      -2.71761185       0.07276294       0.00000000
Si      -0.08465913       2.74237266       2.64999460       0.00000000
Si       2.64460007       2.74916559      -0.08126750       0.00000000
Si      -0.20163762       2.78632308      -2.63409996       0.00000000
