10
Lattice="16.290000149 0.0 0.0 0.0 16.290000149 0.0 0.0 0.0 29.1751946751" Properties=species:S:1:pos:R:3:initial_magmoms:R:1 pbc="T T T"
Si      -2.24340995       0.50727060      -0.28069455       0.00000000
Si       0.91624735      -0.80891091      -2.00541536       0.00000000
Si       0.28574077      -1.82783625       1.56723311       0.00000000
Si       1.33028377       1.98029387       0.48016535       0.00000000
Si       1.63502731      -0.60951316       3.04371094       0.00000000
Si       2.97290874       0.79884532       1.68986520       0.00000000
Si       2.76265371      -1.98566957      -1.07032119       0.00000000
Si      -0.94791511      -1.77569798      -3.09338754       0.00000000
Si      -2.97434226       1.13557591       1.89945834       0.00000000
Si       1.45449013      -3.41948280       0.27809796       0.00000000
