10
Lattice="16.290000149 0.0 0.0 0.0 16.290000149 0.0 0.0 0.0 29.1751946751" Properties=species:S:1:pos:R:3:initial_magmoms:R:1 pbc="T T T"
Si      -1.45822380      -1.38445453       1.21931891       0.00000000
Si       1.33597549      -1.33143058      -1.40957036       0.00000000
Si      -1.34798774       1.35164647      -1.38611350       0.00000000
Si       1.40779810       1.39768201       1.30045513       0.00000000
Si      -0.12069261       2.65898414       2.51878208       0.00000000
Si      -0.03886794      -2.60245784       2.60056015       0.00000000
Si       2.75353131       2.68482008      -0.07495108       0.00000000
Si      -2.79823107      -0.08104275       2.64015089       0.00000000
Si      -0.01397682       2.70166394      -2.75831043       0.00000000
Si       2.75476935      -2.70663239      -0.15988007       0.00000000
