10
Lattice="16.290000149 0.0 0.0 0.0 16.290000149 0.0 0.0 0.0 29.1751946751" Properties=species:S:1:pos:R:3:initial_magmoms:R:1 pbc="T T T"
Si       1.18700344      -0.94812199      -0.13583971       0.00000000
Si      -1.65327212       2.00037455      -0.87330110       0.00000000
Si      -1.66221533      -0.37776673       2.25214998       0.00000000
Si      -0.17031195       2.79710217       0.73897851       0.00000000
Si      -0.10849140       1.33484660       2.67685329       0.00000000
Si       0.37330164      -2.88602276       0.85611691       0.00000000
Si      -2.90608716       0.72657799       0.65469137       0.00000000
Si       3.05116590       0.01866508       0.95213248       0.00000000
Si       1.47976732      -1.64728228      -2.35615955       0.00000000
Si      -1.05609700       0.96211510      -2.93146521       0.00000000
