10
Lattice="16.290000149 0.0 0.0 0.0 16.290000149 0.0 0.0 0.0 29.1751946751" Properties=species:S:1:pos:R:3:initial_magmoms:R:1 pbc="T T T"
Si      -1.29943702      -1.35625654       1.43415337       0.00000000
Si       1.36028669      -1.45886725      -1.28314257       0.00000000
Si       1.39301493       1.28655163       1.43298637       0.00000000
Si      -1.30100086       1.52510239      -1.32472305       0.00000000
Si       2.70356987       0.00645084      -2.51533124       0.00000000
Si      -2.52815915       2.72717571       0.27469321       0.00000000
Si      -2.64691325      -2.69011433       0.04685828       0.00000000
Si       2.80399773       2.67963986       0.17833629       0.00000000
Si      -2.64116288      -0.05263299       2.85822380       0.00000000
Si       0.11378044       2.63137259       2.88999559       0.00000000
