10
Lattice="16.290000149 0.0 0.0 0.0 16.290000149 0.0 0.0 0.0 29.1751946751" Properties=species:S:1:pos:R:3:initial_magmoms:R:1 pbc="T T T"
Si       1.53186274      -1.27467622      -1.20079266       0.00000000
Si       1.39844764       1.31777956       1.37012841       0.00000000
Si      -1.21026556      -1.43360146       1.44578844       0.00000000
Si      -1.47308842       1.20197395      -1.46135633       0.00000000
H        0.37076040      -1.82061929      -2.25941460       0.00000000
Si      -2.66071088       2.67716378      -0.01870130       0.00000000
Si       2.85936369       2.50004261      -0.03845291       0.00000000
Si      -2.63818181      -0.06125040       2.73452098       0.00000000
Si      -0.13046661       2.53428419      -2.84741147       0.00000000
Si       0.07441272       2.76216501       2.68404497       0.00000000
