10
Lattice="16.290000149 0.0 0.0 0.0 16.290000149 0.0 0.0 0.0 29.1751946751" Properties=species:S:1:pos:R:3:initial_magmoms:R:1 pbc="T T T"
Si      -1.32416524       1.35886294       1.36898766       0.00000000
Si       1.37919286      -1.33938010       1.35755098       0.00000000
Si       1.40955742       1.40594104      -1.25602714       0.00000000
Si      -1.41962464      -1.42798141      -1.23720331       0.00000000
Si       0.07820829      -2.66563046      -2.51541818       0.00000000
Si       2.66905136       0.00566892      -2.61999667       0.00000000
Si      -2.66893733      -0.05675436      -2.65136584       0.00000000
Si      -2.64223802       2.75095749       0.03054643       0.00000000
Si       0.05318685       2.72305271       2.67416917       0.00000000
Si       0.09244575       2.66839976      -2.72836501       0.00000000
