10
Lattice="16.290000149 0.0 0.0 0.0 16.290000149 0.0 0.0 0.0 29.1751946751" Properties=species:S:1:pos:R:3:initial_magmoms:R:1 pbc="T T T"
H        0.66772711       0.04447170       1.35664655       0.00000000
Si       1.61339419      -0.76414762      -1.54106296       0.00000000
H       -1.45888354       0.87871519       1.63346080       0.00000000
Si      -1.87023863      -1.44549316      -0.18050693       0.00000000
Si      -0.35173368       1.95385520      -1.39104411       0.00000000
H        1.80366140       1.83397709       0.21974757       0.00000000
H        2.43333506       1.38212506       0.18216992       0.00000000
Si      -0.83847889       0.98275942       3.02578861       0.00000000
H       -0.01353699      -1.84202435       2.95929835       0.00000000
Si       0.12603573      -1.77385070      -3.01753203       0.00000000
