10
Lattice="16.290000149 0.0 0.0 0.0 16.290000149 0.0 0.0 0.0 29.1751946751" Properties=species:S:1:pos:R:3:initial_magmoms:R:1 pbc="T T T"
Si       0.84949093      -1.87154183      -1.11312120       0.00000000
Si       1.49416768       1.24465375       1.36726632       0.00000000
Si      -1.37095012       1.32082579      -1.44283008       0.00000000
Si      -1.31020471      -1.37383345       1.47684835       0.00000000
H        1.37127592      -1.59493762      -2.49975985       0.00000000
H        2.52389117       0.15846912      -2.24754030       0.00000000
Si       0.00799839       2.54461857       2.69628397       0.00000000
Si      -2.80132617       2.49263066       0.01525863       0.00000000
H       -0.13361058      -0.77465467      -3.69912293       0.00000000
Si       2.53746074      -2.80763040       0.19871225       0.00000000
