10
Lattice="16.290000149 0.0 0.0 0.0 16.290000149 0.0 0.0 0.0 29.1751946751" Properties=species:S:1:pos:R:3:initial_magmoms:R:1 pbc="T T T"
Si      -1.34300626       1.39996261      -1.32995125       0.00000000
Si       1.19537650       1.46061028       1.43777985       0.00000000
Si      -1.47410003      -1.21316518       1.42788654       0.00000000
Si       0.97666696      -1.22852665      -1.84016705       0.00000000
Si      -2.45896086      -0.30090888      -2.58407617       0.00000000
Si      -1.05414220      -2.25310250      -2.59738006       0.00000000
Si       2.40461579       0.49581873      -2.74567757       0.00000000
Si      -0.11163537      -2.54925470       2.80884770       0.00000000
Si       2.56976381       0.10863801       2.79811707       0.00000000
Si       2.49662171       2.94829455       0.17086161       0.00000000
