10
Lattice="16.290000149 0.0 0.0 0.0 16.290000149 0.0 0.0 0.0 29.1751946751" Properties=species:S:1:pos:R:3:initial_magmoms:R:1 pbc="T T T"
Si       1.17960778      -0.51416127       0.80578970       0.00000000
H       -0.81401131       0.74143936      -1.64778582       0.00000000
H        0.62470522       1.65038879      -1.09736660       0.00000000
H       -0.58134124       0.11961747       2.31446819       0.00000000
Si      -1.90053803       0.57360349       1.72390390       0.00000000
Si      -1.66228049      -0.19285731      -2.45351717       0.00000000
Si       2.51390540      -1.58705326      -0.81074948       0.00000000
Si      -1.62460171       2.59587668       0.52197341       0.00000000
Si       0.47037375      -2.36392337       2.22685508       0.00000000
Si      -2.87476149      -1.42190524       0.85226579       0.00000000
