10
Lattice="16.290000149 0.0 0.0 0.0 16.290000149 0.0 0.0 0.0 29.1751946751" Properties=species:S:1:pos:R:3:initial_magmoms:R:1 pbc="T T T"
Si       1.44140437      -0.29611962      -0.44147905       0.00000000
Si      -1.99945091       0.04597038       1.02930087       0.00000000
Si      -1.22352562       1.93047905      -0.22041860       0.00000000
Si       0.65919115       2.64394847       1.05188247       0.00000000
Si       1.09234225      -0.07501545      -2.80111044       0.00000000
Si      -0.58865545       1.60585192      -2.55245026       0.00000000
Si      -0.95664655      -1.27553959       2.65313385       0.00000000
Si       1.88270048      -2.43822206       0.42397393       0.00000000
Si       2.67074552       1.27948177       0.97672717       0.00000000
H        1.64325377       2.39332682      -1.42392455       0.00000000
