10
Lattice="16.290000149 0.0 0.0 0.0 16.290000149 0.0 0.0 0.0 29.1751946751" Properties=species:S:1:pos:R:3:initial_magmoms:R:1 pbc="T T T"
Si      -1.35809731      -1.36435267       1.34226318       0.00000000
Si      -1.36028017       1.35226386      -1.35299965       0.00000000
Si       1.33279894       1.35374137       1.38313763       0.00000000
Si       1.35021295      -1.36101322      -1.35912644       0.00000000
Si      -2.71006958       0.02109555       2.67851627       0.00000000
Si       2.68288157       2.70602966       0.01123245       0.00000000
Si       0.03016908      -2.70632288       2.68875677       0.00000000
Si      -2.70808220      -0.03446964      -2.69205356       0.00000000
Si       2.66626577      -0.01161477       2.75422590       0.00000000
Si      -0.01189170       2.73997803      -2.68901934       0.00000000
