10
Lattice="16.290000149 0.0 0.0 0.0 16.290000149 0.0 0.0 0.0 29.1751946751" Properties=species:S:1:pos:R:3:initial_magmoms:R:1 pbc="T T T"
Si      -0.84826918      -0.93429667      -0.80573135       0.00000000
H        1.43871652       0.90894943       0.55041922       0.00000000
H        0.81401131      -0.74143936       1.64778582       0.00000000
Si       2.08715627       1.73281619      -0.52629134       0.00000000
Si      -1.09224451       2.74760175      -0.06864923       0.00000000
Si      -0.81059041       1.85443733       2.16975923       0.00000000
Si       0.58215574      -2.37952919      -1.92264533       0.00000000
Si      -2.14278662       0.35743518      -2.23458651       0.00000000
Si      -2.68394042      -1.75832633       0.35299068       0.00000000
Si       1.99361909      -1.25560063       2.45357552       0.00000000
