10
Lattice="16.290000149 0.0 0.0 0.0 16.290000149 0.0 0.0 0.0 29.1751946751" Properties=species:S:1:pos:R:3:initial_magmoms:R:1 pbc="T T T"
Si      -1.35438319      -1.35578413       1.33272289       0.00000000
Si      -1.37521810       1.34657214      -1.33508608       0.00000000
Si       1.30816846       1.31398073       1.44417214       0.00000000
Si       1.35197227      -1.38544822      -1.33625309       0.00000000
Si       0.04276125      -2.80684848       2.52327506       0.00000000
Si       2.67379175       2.67384062       0.06911604       0.00000000
Si      -0.01137042       2.69381216      -2.68499317       0.00000000
Si       2.71006958      -0.02109555      -2.67851627       0.00000000
Si      -2.72640846      -0.02221956      -2.68502234       0.00000000
Si      -2.65948913      -0.00882918       2.76181145       0.00000000
