10
Lattice="16.290000149 0.0 0.0 0.0 16.290000149 0.0 0.0 0.0 29.1751946751" Properties=species:S:1:pos:R:3:initial_magmoms:R:1 pbc="T T T"
Si      -1.44609589       1.19516473       1.35167743       0.00000000
Si      -1.35148357      -1.35158131      -1.34313844       0.00000000
Si       1.28107819      -1.48988341       1.34020341       0.00000000
Si       1.31020471       1.37383345      -1.47684835       0.00000000
Si       2.15969564      -0.49770837      -2.58996956       0.00000000
Si       0.36999477      -2.09697914      -2.72505071       0.00000000
Si      -0.01611081       2.55296882       2.62843705       0.00000000
Si      -2.79928503       2.43265088      -0.11317058       0.00000000
Si       2.69760773      -0.19645740       2.68054978       0.00000000
Si      -2.78937908      -0.27015336       2.58386611       0.00000000
