10
Lattice="16.290000149 0.0 0.0 0.0 16.290000149 0.0 0.0 0.0 29.1751946751" Properties=species:S:1:pos:R:3:initial_magmoms:R:1 pbc="T T T"
Si      -1.35555607      -1.33524244       1.32003460       0.00000000
Si      -1.40691844       1.36767583      -1.24817318       0.00000000
Si       1.33581259      -1.15621534      -1.55853598       0.00000000
Si       1.42170976       1.46056141       1.22299790       0.00000000
Si       0.42479433       2.38236365      -2.19724518       0.00000000
Si       2.16422426       0.83821825      -2.65805046       0.00000000
Si       0.07667703      -2.65828367       2.59904596       0.00000000
Si      -2.66445758      -2.62718606      -0.15068405       0.00000000
Si       2.76139938      -2.52100784      -0.22218078       0.00000000
Si      -2.69298137       0.10560807       2.60543533       0.00000000
