10
Lattice="16.290000149 0.0 0.0 0.0 16.290000149 0.0 0.0 0.0 29.1751946751" Properties=species:S:1:pos:R:3:initial_magmoms:R:1 pbc="T T T"
H       -0.61146145       1.30973882      -0.42907959       0.00000000
Si      -0.84587455      -1.66162237      -1.39620812       0.00000000
Si       2.30738078       0.08626207      -0.37061250       0.00000000
Si      -0.74385028      -0.58897636       2.15797245       0.00000000
H        1.39536883       1.63897601      -1.86773761       0.00000000
Si       2.37206837      -1.97352700       0.92578728       0.00000000
Si      -2.22172633      -0.20860974      -2.55650561       0.00000000
Si      -2.13310547       2.80200057       0.17502199       0.00000000
Si       1.33317361      -1.28956202       3.00991731       0.00000000
Si      -3.43992871       1.07561894      -0.94939001       0.00000000
