10
Lattice="16.290000149 0.0 0.0 0.0 16.290000149 0.0 0.0 0.0 29.1751946751" Properties=species:S:1:pos:R:3:initial_magmoms:R:1 pbc="T T T"
Si       1.34889346       1.36122499       1.34981956       0.00000000
Si      -1.34500015       1.35707104      -1.36204396       0.00000000
Si       1.35837424      -1.35578413      -1.35329140       0.00000000
Si      -1.36681246      -1.36593280       1.34310926       0.00000000
Si      -0.03591945      -2.69895980      -2.68047101       0.00000000
Si       2.69327459      -0.02160054       2.69193686       0.00000000
Si      -2.68336734      -0.01962945      -2.70398622       0.00000000
Si      -0.03873762       2.71265969       2.68251327       0.00000000
Si       2.69625566       2.70936911      -0.02762891       0.00000000
Si       2.68931612      -2.72520299       0.01814697       0.00000000
