10
Lattice="16.290000149 0.0 0.0 0.0 16.290000149 0.0 0.0 0.0 29.1751946751" Properties=species:S:1:pos:R:3:initial_magmoms:R:1 pbc="T T T"
Si       1.29676546       1.23356026      -1.50686963       0.00000000
Si       1.44454834      -1.35540946       1.28289166       0.00000000
Si      -1.49687182       1.33773481       1.25357059       0.00000000
Si      -1.43752735      -1.40739085      -1.31723086       0.00000000
Si       2.50411511      -2.81698086      -0.19693256       0.00000000
Si      -2.80891079      -0.15465726       2.51983239       0.00000000
Si      -0.12202839       2.60876207      -2.75655992       0.00000000
Si       0.13408299      -2.71358822       2.67107660       0.00000000
Si       2.47925657      -0.21752037      -2.91830720       0.00000000
Si       3.15084441       2.16657002      -0.40442655       0.00000000
