10
Lattice="16.290000149 0.0 0.0 0.0 16.290000149 0.0 0.0 0.0 29.1751946751" Properties=species:S:1:pos:R:3:initial_magmoms:R:1 pbc="T T T"
Si       0.27377300      -0.81471178      -2.15811833       0.00000000
Si      -2.27872341       0.47257290      -0.11597140       0.00000000
Si       1.28694585       1.99198846       0.11066151       0.00000000
Si       1.05245130      -1.54238608       1.47530207       0.00000000
Si      -2.57148730       1.17173319       2.10434844       0.00000000
Si       2.56945756      -0.21004326       2.66932609       0.00000000
Si       3.36396974       1.29140279       0.96260637       0.00000000
Si       1.93183438      -2.46440009      -2.06181101       0.00000000
Si       1.18492158       0.91934245      -3.44351905       0.00000000
Si       2.43420169      -2.87963220       0.14686793       0.00000000
