10
Lattice="16.290000149 0.0 0.0 0.0 16.290000149 0.0 0.0 0.0 29.1751946751" Properties=species:S:1:pos:R:3:initial_magmoms:R:1 pbc="T T T"
Si      -1.34280100      -1.34698590      -1.38728051       0.00000000
Si       1.30842910       1.34767334      -1.42103621       0.00000000
Si       1.42470712      -1.36382976       1.29607885       0.00000000
Si      -1.41895675       1.35474320       1.33499856       0.00000000
Si       0.07897392      -2.65096784       2.67148505       0.00000000
Si      -2.67681192      -2.69700338      -0.01508358       0.00000000
Si       2.60307686       2.78472828      -0.10990296       0.00000000
Si      -0.10425600       2.82066402       2.61202600       0.00000000
Si       2.68107338      -0.04327276       2.76157805       0.00000000
Si       2.73259866      -0.01476851      -2.71977000       0.00000000
