10
Lattice="16.290000149 0.0 0.0 0.0 16.290000149 0.0 0.0 0.0 29.1751946751" Properties=species:S:1:pos:R:3:initial_magmoms:R:1 pbc="T T T"
Si       0.95799862      -1.44565606      -1.52810917       0.00000000
Si      -1.68796982       0.93608857      -1.31183345       0.00000000
Si       1.51304779       1.27803196       1.27516023       0.00000000
Si      -1.26425062      -1.48458916       1.32388281       0.00000000
H       -1.16618482       1.21269277      -2.69847211       0.00000000
Si      -0.94508065      -2.92822527      -1.84054633       0.00000000
Si      -2.56658726      -0.05608647       2.61833952       0.00000000
Si      -2.65859318      -2.50856228      -0.29819966       0.00000000
Si       0.17350479       2.63741618       2.61608923       0.00000000
Si       2.53281809      -2.74427859      -0.43762792       0.00000000
