10
Lattice="16.290000149 0.0 0.0 0.0 16.290000149 0.0 0.0 0.0 29.1751946751" Properties=species:S:1:pos:R:3:initial_magmoms:R:1 pbc="T T T"
Si       1.34747623       1.33385779       1.38729509       0.00000000
Si       1.32403492      -1.44438544      -1.31391656       0.00000000
Si      -1.34021089      -1.41709969       1.36089154       0.00000000
Si      -1.42558678       1.36479250      -1.33635520       0.00000000
H        0.48617505       1.65299519      -3.21763011       0.00000000
Si      -2.76139938       2.52100784       0.22218078       0.00000000
Si       2.64691325       2.69011433      -0.04685828       0.00000000
Si      -2.73512361      -0.08500122      -2.70274627       0.00000000
Si       2.69628824      -0.04904919       2.75038936       0.00000000
Si      -0.07441272      -2.76216501      -2.68404497       0.00000000
