10
Lattice="16.290000149 0.0 0.0 0.0 16.290000149 0.0 0.0 0.0 29.1751946751" Properties=species:S:1:pos:R:3:initial_magmoms:R:1 pbc="T T T"
Si       1.36272367       1.36365220      -1.32787981       0.00000000
Si      -1.34978941       1.36386397       1.35533367       0.00000000
Si       1.38432421      -1.33863076       1.34853585       0.00000000
Si      -1.33768594      -1.34975683      -1.39180266       0.00000000
Si       2.70014897      -0.07719831      -2.61328054       0.00000000
Si      -0.02274084       2.71958294      -2.66713795       0.00000000
Si      -2.69166188      -2.69555519      -0.01794274       0.00000000
Si       0.02480967      -2.70172910       2.69149923       0.00000000
Si      -2.71741637       0.01920591       2.69654654       0.00000000
Si       0.01822851       2.72591975       2.70547415       0.00000000
