10
Lattice="16.290000149 0.0 0.0 0.0 16.290000149 0.0 0.0 0.0 29.1751946751" Properties=species:S:1:pos:R:3:initial_magmoms:R:1 pbc="T T T"
Si      -0.66772711      -0.04447170      -1.35664655       0.00000000
H       -2.12661065       0.83424349       0.27681425       0.00000000
H        1.13593429       1.78950539      -1.13689899       0.00000000
Si      -1.50620599       0.93828772       1.66914206       0.00000000
H        1.76560796       1.33765336      -1.17447664       0.00000000
H       -0.68126410      -1.88649605       1.60265179       0.00000000
Si       0.39687327       2.42085692       1.98157922       0.00000000
Si       0.94566709      -0.80861932      -2.89770951       0.00000000
Si       0.58572325      -2.85200436       1.22772137       0.00000000
Si       2.46697391      -2.06091308       0.10012927       0.00000000
