10
Lattice="16.290000149 0.0 0.0 0.0 16.290000149 0.0 0.0 0.0 29.1751946751" Properties=species:S:1:pos:R:3:initial_magmoms:R:1 pbc="T T T"
Si      -1.33279894      -1.35374137      -1.38313763       0.00000000
Si       1.33346683      -1.36535614       1.37108827       0.00000000
Si       1.35008263       1.35228830      -1.37190518       0.00000000
Si      -1.36907677       1.34119481       1.36449468       0.00000000
Si       0.00452862       2.72452533       2.67370237       0.00000000
Si      -2.69462666       2.70470040      -0.02652025       0.00000000
Si       2.70543345       0.00618206       2.69955159       0.00000000
Si       2.70195554      -2.70566477      -0.00781895       0.00000000
Si      -2.69089625      -2.71809404      -0.04087445       0.00000000
Si      -2.69307911      -0.00147750      -2.73613728       0.00000000
