10
Lattice="16.290000149 0.0 0.0 0.0 16.290000149 0.0 0.0 0.0 29.1751946751" Properties=species:S:1:pos:R:3:initial_magmoms:R:1 pbc="T T T"
Si       1.16110234       0.54594307       1.05862194       0.00000000
Si      -1.30526884      -0.52882227      -0.94180446       0.00000000
Si      -0.05877432      -2.38415555      -1.58024524       0.00000000
Si      -0.37076040       1.82061929       2.25941460       0.00000000
Si       2.82572696       1.34509789      -0.38514174       0.00000000
Si      -3.06919893      -1.12642093       0.52042712       0.00000000
Si       2.31186053      -0.94718206       2.44564745       0.00000000
Si      -2.34807320       0.79268770      -2.56563744       0.00000000
Si      -1.84384883       3.02259324       0.79805828       0.00000000
H       -0.34862229       0.74671732      -3.59493831       0.00000000
