10
Lattice="16.290000149 0.0 0.0 0.0 16.290000149 0.0 0.0 0.0 29.1751946751" Properties=species:S:1:pos:R:3:initial_magmoms:R:1 pbc="T T T"
H        1.22352562      -1.93047905       0.22041860       0.00000000
Si       1.88271677       0.71346943       1.27230106       0.00000000
Si      -0.77592529      -1.88450867       1.24971946       0.00000000
H       -2.04322214      -0.55566819      -1.11735161       0.00000000
Si       0.63487018      -0.32462712      -2.33203166       0.00000000
Si      -1.78385276       1.54157158       0.64319634       0.00000000
H       -2.67289580      -0.10381617      -1.07977396       0.00000000
H        2.34110108       2.00073782       0.61895176       0.00000000
H       -0.41684481       2.15891372      -2.24441855       0.00000000
H        2.86677939       0.46284777      -1.20350596       0.00000000
