10
Lattice="16.290000149 0.0 0.0 0.0 16.290000149 0.0 0.0 0.0 29.1751946751" Properties=species:S:1:pos:R:3:initial_magmoms:R:1 pbc="T T T"
Si      -1.66462462      -0.79915483       1.44376368       0.00000000
Si      -0.50360373       0.68110120      -2.23306940       0.00000000
Si       1.11595461       1.70087150       1.25412492       0.00000000
Si       1.40481866      -1.95219362      -0.01330389       0.00000000
H       -2.82572696      -1.34509789       0.38514174       0.00000000
Si       2.45896086       0.30090888       2.58407617       0.00000000
Si       3.43562782      -0.92761777       0.74390911       0.00000000
Si       0.90114978      -2.85694023      -2.11278007       0.00000000
Si      -0.51386643      -2.29227995       2.83078920       0.00000000
H        2.85231550      -0.36753498      -2.35370883       0.00000000
