10
Lattice="16.290000149 0.0 0.0 0.0 16.290000149 0.0 0.0 0.0 29.1751946751" Properties=species:S:1:pos:R:3:initial_magmoms:R:1 pbc="T T T"
Si       0.08182467      -0.67018690      -2.23891027       0.00000000
Si      -0.98655499      -1.78822499       1.15462583       0.00000000
Si       1.84239902       0.87902470       1.18344509       0.00000000
Si      -1.64416601       1.72428023      -0.03197747       0.00000000
H        2.54782118      -0.96247837      -0.72016634       0.00000000
Si       0.55913797       2.32683104       2.51899798       0.00000000
Si      -2.30006657      -0.47475576       2.56706703       0.00000000
Si      -2.17114751       1.97078051      -2.27981390       0.00000000
Si      -2.11991546      -0.29326887      -3.03761040       0.00000000
Si       2.05506497       0.31262139      -3.10637634       0.00000000
