10
Lattice="16.290000149 0.0 0.0 0.0 16.290000149 0.0 0.0 0.0 29.1751946751" Properties=species:S:1:pos:R:3:initial_magmoms:R:1 pbc="T T T"
Si       1.30082167      -1.34832331       1.41762271       0.00000000
Si      -1.37849239       1.34978941       1.34847750       0.00000000
Si      -1.42988734      -1.41115384      -1.23285037       0.00000000
Si       1.42931719       1.39043296      -1.28091942       0.00000000
Si      -2.64647342      -0.01557324      -2.65812865       0.00000000
Si       2.71257824      -0.05737338      -2.61647230       0.00000000
Si       0.05027094       2.66023847      -2.68923524       0.00000000
Si      -0.11637576      -2.72462307      -2.64529156       0.00000000
Si       2.62971101      -2.76688748       0.12950869       0.00000000
Si      -0.03104874       2.70593192       2.71055064       0.00000000
