10
Lattice="16.290000149 0.0 0.0 0.0 16.290000149 0.0 0.0 0.0 29.1751946751" Properties=species:S:1:pos:R:3:initial_magmoms:R:1 pbc="T T T"
Si       1.33954300      -1.35938422      -1.34092900       0.00000000
Si       1.30393306       1.18366399       1.54992142       0.00000000
Si      -1.32356251      -1.40007664       1.34259665       0.00000000
Si      -1.21679785       1.41486796      -1.44753516       0.00000000
Si      -0.17350479      -2.63741618      -2.61608923       0.00000000
Si       0.39359898       2.90969865      -2.39380343       0.00000000
Si      -2.70813107      -0.04439025       2.66159554       0.00000000
Si      -2.70296714       2.71483278      -0.11851752       0.00000000
Si      -0.01964574       2.67306841       2.75257254       0.00000000
Si      -2.74009206      -2.69350265       0.00225028       0.00000000
