10
Lattice="16.290000149 0.0 0.0 0.0 16.290000149 0.0 0.0 0.0 29.1751946751" Properties=species:S:1:pos:R:3:initial_magmoms:R:1 pbc="T T T"
Si      -1.34496014      -1.41679018       1.30156378       0.00000000
Si       1.33675995      -1.36339156      -1.37263456       0.00000000
Si      -1.43942586       1.34820928      -1.28744299       0.00000000
Si       1.38090422       1.35917245       1.35682160       0.00000000
Si      -2.58125713      -0.05097141       2.71632732       0.00000000
Si      -0.06287197       2.67592574      -2.67618226       0.00000000
Si       0.00385871       2.75645227       2.65418416       0.00000000
Si       2.70771496      -2.70508484      -0.01636728       0.00000000
Si       2.69553004      -0.01288539      -2.72578009       0.00000000
Si       2.71491514       2.70918992      -0.01537533       0.00000000
