10
Lattice="16.290000149 0.0 0.0 0.0 16.290000149 0.0 0.0 0.0 29.1751946751" Properties=species:S:1:pos:R:3:initial_magmoms:R:1 pbc="T T T"
Si       1.46855036      -1.29024115       1.27501436       0.00000000
Si      -1.40243869      -1.41391988      -1.25736336       0.00000000
Si      -1.22803795       1.43111235       1.41418004       0.00000000
Si       1.37914399       1.33925304      -1.38022011       0.00000000
Si       0.16268823      -2.63902564       2.63379070       0.00000000
Si      -2.58751991       2.73902017      -0.00854833       0.00000000
Si      -2.66634722      -0.02407662      -2.68688955       0.00000000
Si       0.02526579      -2.69848414      -2.66661279       0.00000000
Si       2.69703921       0.07282933       2.72224989       0.00000000
Si       2.75742787       2.70083641      -0.04638856       0.00000000
