10
Lattice="16.290000149 0.0 0.0 0.0 16.290000149 0.0 0.0 0.0 29.1751946751" Properties=species:S:1:pos:R:3:initial_magmoms:R:1 pbc="T T T"
Si      -1.24649452       1.85533328       0.63844079       0.00000000
Si      -1.48296016      -0.79672762      -1.61227961       0.00000000
Si       1.59285250       0.69265081      -1.59071914       0.00000000
Si       0.06182055      -1.46225557       1.93787478       0.00000000
H        0.05877432       2.38415555       1.58024524       0.00000000
H        0.17031195      -2.79710217      -0.73897851       0.00000000
H        1.53324739      -0.35012097      -2.69147006       0.00000000
Si      -2.73577521      -2.07052418      -0.08428714       0.00000000
Si      -2.85522978       1.10711728      -2.07785736       0.00000000
H       -0.28984797       3.13087287      -2.01469307       0.00000000
