10
Lattice="16.290000149 0.0 0.0 0.0 16.290000149 0.0 0.0 0.0 29.1751946751" Properties=species:S:1:pos:R:3:initial_magmoms:R:1 pbc="T T T"
Si       1.30124521       1.48768426      -1.26691824       0.00000000
Si       1.37438731      -1.35197227       1.36033721       0.00000000
Si      -1.38284182       1.36979353       1.34976704       0.00000000
Si      -1.19537650      -1.46061028      -1.43777985       0.00000000
Si       2.60358185       0.05918157      -2.56137495       0.00000000
Si      -2.53838276      -0.06064767      -2.76773110       0.00000000
Si      -2.66947653      -2.67377546      -0.00989331       0.00000000
Si       0.02119329      -2.66952377       2.75802160       0.00000000
Si       2.72056034       0.01523115       2.72271961       0.00000000
Si      -0.01813077       2.73618245       2.71110788       0.00000000
