10
Lattice="16.290000149 0.0 0.0 0.0 16.290000149 0.0 0.0 0.0 29.1751946751" Properties=species:S:1:pos:R:3:initial_magmoms:R:1 pbc="T T T"
Si       0.05960511       1.04277178       1.10075092       0.00000000
H        1.18861452       1.83503594      -1.91059597       0.00000000
Si      -2.41903244      -1.48486609      -0.97897366       0.00000000
Si      -0.43829874      -2.37562448      -1.95602175       0.00000000
Si       2.25240366       1.22243419       1.77379349       0.00000000
Si      -1.53324739       0.35012097       2.69147006       0.00000000
Si      -0.38169099       3.18487422       0.23529795       0.00000000
Si      -3.01620756      -0.44660664       1.07919045       0.00000000
Si       2.29324595       0.81612901      -2.15998554       0.00000000
H       -1.36293544      -2.44698120       1.95249155       0.00000000
