10
Lattice="16.290000149 0.0 0.0 0.0 16.290000149 0.0 0.0 0.0 29.1751946751" Properties=species:S:1:pos:R:3:initial_magmoms:R:1 pbc="T T T"
Si      -1.36187659      -1.35119035       1.34932358       0.00000000
Si      -1.39048183       1.34813109      -1.33173094       0.00000000
Si       1.31984839      -1.36910935      -1.38197062       0.00000000
Si       1.36213723       1.34234977       1.37628146       0.00000000
Si      -0.06203232       2.70479162       2.67501525       0.00000000
Si       0.01213605      -2.70280424       2.69400830       0.00000000
Si      -0.04694778       2.70407486      -2.69610892       0.00000000
Si       2.69011433      -2.71127504      -0.03013798       0.00000000
Si       2.69742854       2.70656723       0.00846081       0.00000000
Si       2.69620679      -0.01264104      -2.71276795       0.00000000
