10
Lattice="16.290000149 0.0 0.0 0.0 16.290000149 0.0 0.0 0.0 29.1751946751" Properties=species:S:1:pos:R:3:initial_magmoms:R:1 pbc="T T T"
Si       1.31628088       1.32853096      -1.36792393       0.00000000
Si      -1.25949394       1.40027212       1.36396953       0.00000000
Si      -1.72346573      -0.94239280      -1.27578896       0.00000000
Si       1.45143963      -1.38531790       1.22365434       0.00000000
Si      -3.42749748       0.72581725      -1.15333629       0.00000000
Si      -2.57660561       2.66273084      -0.10836834       0.00000000
Si      -2.59084307      -2.67129938       0.10457849       0.00000000
Si       2.58116030      -0.09767484      -2.69508195       0.00000000
Si      -2.66905136      -0.00566892       2.61999667       0.00000000
Si       2.80754895       0.00772146       2.55020960       0.00000000
