10
Lattice="16.290000149 0.0 0.0 0.0 16.290000149 0.0 0.0 0.0 29.1751946751" Properties=species:S:1:pos:R:3:initial_magmoms:R:1 pbc="T T T"
Si      -1.37544616      -1.32015790       1.36350272       0.00000000
Si      -1.37401264       1.35161389      -1.34468472       0.00000000
Si       1.28961415      -1.36834372      -1.41172932       0.00000000
Si       1.40841712       1.32574537       1.35545037       0.00000000
Si       0.04334769      -2.69535971       2.61319301       0.00000000
Si       0.04210965       2.69609276       2.69812200       0.00000000
Si      -0.01213605       2.70280424      -2.69400830       0.00000000
Si       2.67797828      -0.00847080      -2.72414628       0.00000000
Si       2.60928335      -2.81056260      -0.13799867       0.00000000
Si      -2.73259865      -2.70133814       0.01377069       0.00000000
