10
Lattice="16.290000149 0.0 0.0 0.0 16.290000149 0.0 0.0 0.0 29.1751946751" Properties=species:S:1:pos:R:3:initial_magmoms:R:1 pbc="T T T"
Si      -1.22715829       1.20207332       1.59941626       0.00000000
Si      -1.94308751      -0.85599064      -1.06428835       0.00000000
Si       1.30100086      -1.52510239       1.32472305       0.00000000
Si       1.48263225       1.31048115      -1.36632105       0.00000000
H       -0.85973734      -2.56222154      -1.84604877       0.00000000
Si      -2.64482813       2.54498672       0.34627163       0.00000000
Si       2.65138160      -0.28116540      -2.65545620       0.00000000
Si      -3.68251743       0.68815477      -0.60348307       0.00000000
Si       2.83191879       2.52880424       0.11015678       0.00000000
Si       2.69401579      -0.23855076       2.75770942       0.00000000
