10
Lattice="16.290000149 0.0 0.0 0.0 16.290000149 0.0 0.0 0.0 29.1751946751" Properties=species:S:1:pos:R:3:initial_magmoms:R:1 pbc="T T T"
H        1.17139762       0.36958752       0.91650957       0.00000000
Si       0.88000210       1.47103588      -1.62981390       0.00000000
Si      -0.77976810      -2.11981772       1.15743832       0.00000000
Si       0.54126783      -2.38995479      -0.74708921       0.00000000
Si      -2.18452160       1.41822370       1.03714900       0.00000000
H        2.62384661      -1.66105874       1.30025090       0.00000000
Si      -3.41386275      -0.15737769      -0.38105722       0.00000000
H       -1.84355724      -1.50721597      -2.52695114       0.00000000
Si      -0.27609921      -1.21507111       3.25691451       0.00000000
Si       1.30743541       3.29300724      -0.15171101       0.00000000
