10
Lattice="16.290000149 0.0 0.0 0.0 16.290000149 0.0 0.0 0.0 29.1751946751" Properties=species:S:1:pos:R:3:initial_magmoms:R:1 pbc="T T T"
Si       1.36893881      -1.35584929       1.34083360       0.00000000
Si       1.39652021       1.33602436      -1.33441505       0.00000000
Si      -1.35021295       1.36101322       1.35912644       0.00000000
Si      -1.35842311      -1.34798122      -1.36618684       0.00000000
Si       0.07993503       2.76876734      -2.61307631       0.00000000
Si       2.69797915      -2.70518258      -0.04980206       0.00000000
Si       0.02293632      -2.71060715       2.69791778       0.00000000
Si      -2.70831026      -0.00333945       2.70138963       0.00000000
Si       2.68454153       0.00908982       2.73444512       0.00000000
Si      -2.71049312       2.71327709       0.00612679       0.00000000
