10
Lattice="16.290000149 0.0 0.0 0.0 16.290000149 0.0 0.0 0.0 29.1751946751" Properties=species:S:1:pos:R:3:initial_magmoms:R:1 pbc="T T T"
Si      -1.45702648      -1.29772657       1.30138873       0.00000000
Si       1.36906048      -1.38658852      -1.31113325       0.00000000
Si      -1.36469476       1.32554989      -1.37876135       0.00000000
Si       1.38390067       1.34767171       1.34115452       0.00000000
Si      -0.05641227       2.71886618       2.57024713       0.00000000
Si      -0.21546783      -2.68690520       2.67084320       0.00000000
Si       2.72233595      -0.03921003      -2.68327183       0.00000000
Si       2.72495864       2.68162724      -0.03040055       0.00000000
Si       0.00778662      -2.73300591      -2.67629896       0.00000000
Si      -0.01172880       2.67740813      -2.73957996       0.00000000
