10
Lattice="16.290000149 0.0 0.0 0.0 16.290000149 0.0 0.0 0.0 29.1751946751" Properties=species:S:1:pos:R:3:initial_magmoms:R:1 pbc="T T T"
Si       1.31966920      -1.44221887       1.27373065       0.00000000
Si      -1.34969167      -1.36150192      -1.34643523       0.00000000
Si       1.38836413       1.35987292      -1.31241696       0.00000000
Si      -1.28961415       1.36834372       1.41172932       0.00000000
Si       2.74887237      -0.05426199       2.44989945       0.00000000
Si       0.01809819       2.70203861      -2.66424960       0.00000000
Si      -2.66362679       2.71995761       0.06704460       0.00000000
Si      -2.71754669      -0.00467523      -2.67317721       0.00000000
Si      -0.06377535      -2.77809663       2.61348476       0.00000000
Si       2.74025495      -0.01031157      -2.66179889       0.00000000
