10
Lattice="16.290000149 0.0 0.0 0.0 16.290000149 0.0 0.0 0.0 29.1751946751" Properties=species:S:1:pos:R:3:initial_magmoms:R:1 pbc="T T T"
Si      -1.23629698       1.36581877       1.41476354       0.00000000
Si       1.32423040      -1.36743148       1.33987082       0.00000000
Si       1.34496014       1.41679018      -1.30156378       0.00000000
Si      -1.39295791      -1.35560494      -1.32755888       0.00000000
H       -1.88473673       0.54195201       2.49147410       0.00000000
Si       2.61562831       0.03986163       2.66069023       0.00000000
Si      -2.81204499       2.45255726       0.09000548       0.00000000
Si       2.68172010       0.05339862      -2.67419834       0.00000000
Si      -0.09446571       2.76499947      -2.58900678       0.00000000
Si      -0.01014867      -2.69845481      -2.66276167       0.00000000
