10
Lattice="16.290000149 0.0 0.0 0.0 16.290000149 0.0 0.0 0.0 29.1751946751" Properties=species:S:1:pos:R:3:initial_magmoms:R:1 pbc="T T T"
Si       1.31046535       1.35817876      -1.38818494       0.00000000
Si      -1.38108250       1.48354660       1.21847283       0.00000000
Si       1.60332697      -1.30155472       1.20826151       0.00000000
Si      -1.50242671      -1.33659451      -1.31288376       0.00000000
Si      -1.71981677      -2.37744407       2.10119752       0.00000000
Si      -2.26108460       0.01251072       2.84828673       0.00000000
Si       2.37003212      -0.10339263      -2.86800916       0.00000000
Si       3.47356560       0.14393844       1.38876844       0.00000000
Si       3.12183192       2.09779364      -0.00227567       0.00000000
H        2.01468206       1.02265363       3.02222924       0.00000000
