10
Lattice="10.86 0.0 0.0 0.0 10.86 0.0 0.0 0.0 10.86" Properties=species:S:1:pos:R:3:initial_magmoms:R:1 pbc="T T T"
Si      -1.05137832      -1.33809318       1.39541226       0.00000000
Si       1.66362168      -1.33809318      -1.31958774       0.00000000
Si       1.66362168       1.37690682       1.39541226       0.00000000
Si      -2.22766836       0.08193870      -2.64044610       0.00000000
Si      -2.40887832      -2.69559318       0.03791226       0.00000000
Si      -2.45308938       0.03515382       2.85404058       0.00000000
Si       0.30612168      -2.69559318      -2.67708774       0.00000000
Si       0.30612168      -2.69559318       2.75291226       0.00000000
Si       0.48009888       2.71043880       2.88399246       0.00000000
Si       3.02112168       0.01940682      -2.67708774       0.00000000
