10
Lattice="10.86 0.0 0.0 0.0 10.86 0.0 0.0 0.0 10.86" Properties=species:S:1:pos:R:3:initial_magmoms:R:1 pbc="T T T"
Si       1.18352280       1.38146802       1.22641980       0.00000000
Si       1.18352280      -1.33353198      -1.48858020       0.00000000
Si      -1.53147720      -1.33353198       1.22641980       0.00000000
Si       2.54102280       0.02396802       2.58391980       0.00000000
Si       2.54102280      -2.69103198      -0.13108020       0.00000000
Si      -0.17397720      -2.69103198       2.58391980       0.00000000
Si       2.54102280       2.73896802      -0.13108020       0.00000000
Si      -0.17397720       2.73896802       2.58391980       0.00000000
Si       2.54102280       0.02396802      -2.84608020       0.00000000
Si      -2.88897720       0.02396802       2.58391980       0.00000000
