10
Lattice="16.28999089631971 0.0 0.0 0.0 16.28999089631971 0.0 0.0 0.0 34.51007289658418" Properties=species:S:1:pos:R:3:initial_magmoms:R:1 pbc="T T T"
Si      -0.92273076      -1.48105422      -1.60275221       0.00000000
Si      -1.85129171       0.33783831       1.47599664       0.00000000
Si       0.85991652       1.88556491      -1.27400907       0.00000000
Si       1.99098009      -0.69196662       1.26745216       0.00000000
Si      -1.01444346       3.22137098      -0.49832573       0.00000000
Si      -1.76638171       0.25431948      -2.94602304       0.00000000
Si      -2.76655676       1.97103528      -1.52548411       0.00000000
Si       3.67046280       1.00778085       0.90764993       0.00000000
Si      -3.08969891       2.23677405       0.90858171       0.00000000
Si       0.83997756      -2.55425571      -2.89374025       0.00000000
