10
Lattice="16.28999089631971 0.0 0.0 0.0 16.28999089631971 0.0 0.0 0.0 34.51007289658418" Properties=species:S:1:pos:R:3:initial_magmoms:R:1 pbc="T T T"
Si      -1.70751943      -0.96669747       1.37914894       0.00000000
Si       1.08163971       1.79266563       1.32078547       0.00000000
Si       1.66127049      -1.91241342       0.24999149       0.00000000
Si      -0.78118695       0.27300411      -2.72339843       0.00000000
Si      -1.68605735      -2.35931328      -1.85043114       0.00000000
Si       2.26256697       0.29688525       2.74026839       0.00000000
Si      -0.48322656      -2.43978588       2.75744061       0.00000000
Si       1.24121655       1.99451502      -2.98177549       0.00000000
Si      -3.32583875      -2.00181294      -0.06260131       0.00000000
Si       2.04447645      -1.53326367      -3.09451997       0.00000000
