10
Lattice="16.28999089631971 0.0 0.0 0.0 16.28999089631971 0.0 0.0 0.0 34.51007289658418" Properties=species:S:1:pos:R:3:initial_magmoms:R:1 pbc="T T T"
Si       1.56706542      -1.13981619       1.39619205       0.00000000
Si      -1.16444178       1.59933917       1.38236386       0.00000000
Si       1.86714351       1.21913057      -1.18404678       0.00000000
Si      -2.30451372      -2.32812186      -0.01716877       0.00000000
Si      -1.84700907      -0.21926503      -2.78413417       0.00000000
Si       0.47180727       0.77374568      -3.33125717       0.00000000
Si       0.21357819      -2.47774551       2.77908047       0.00000000
Si      -2.51151075       0.24881346       2.77266159       0.00000000
Si       3.08052045      -2.48341443      -0.09840208       0.00000000
Si      -2.67988419       2.96422940      -0.11336220       0.00000000
