10
Lattice="16.28999089631971 0.0 0.0 0.0 16.28999089631971 0.0 0.0 0.0 34.51007289658418" Properties=species:S:1:pos:R:3:initial_magmoms:R:1 pbc="T T T"
Si      -2.06145063       0.40579367       0.91965945       0.00000000
Si      -0.65661732      -0.64846810      -2.14452615       0.00000000
Si       0.85639788       2.18746518      -0.40721909       0.00000000
Si       0.95417046      -1.95945472       1.01231904       0.00000000
Si       2.04325470       2.01892884       1.60026748       0.00000000
Si      -1.17253791      -2.91248488       1.54480977       0.00000000
Si       1.36612827      -0.31894028      -3.24429377       0.00000000
Si      -3.01957956      -1.71314992       0.68074608       0.00000000
Si      -3.09837429       1.75446069      -0.60982784       0.00000000
Si       1.91171295       1.88930931      -2.51223118       0.00000000
