10
Lattice="16.28999089631971 0.0 0.0 0.0 16.28999089631971 0.0 0.0 0.0 34.51007289658418" Properties=species:S:1:pos:R:3:initial_magmoms:R:1 pbc="T T T"
Si      -0.28240344       1.93373703       1.27269769       0.00000000
Si      -1.75902678      -1.29700980      -0.90402637       0.00000000
Si       0.87586443      -1.69901442       1.66376605       0.00000000
Si      -0.12193065       1.70411319      -1.87165485       0.00000000
Si      -0.97756290      -1.75431897       3.16747430       0.00000000
Si       2.90903562      -1.17564930      -2.09597045       0.00000000
Si      -0.92665665       3.62408517      -0.59505752       0.00000000
Si      -0.73964745      -2.99558439      -2.25927220       0.00000000
Si      -1.81501551       0.67043124      -3.35241388       0.00000000
Si       1.55753577      -3.54567488       0.43990015       0.00000000
