10
Lattice="16.28999089631971 0.0 0.0 0.0 16.28999089631971 0.0 0.0 0.0 34.51007289658418" Properties=species:S:1:pos:R:3:initial_magmoms:R:1 pbc="T T T"
Si       1.88186967      -0.21967065       1.41601810       0.00000000
Si      -1.87897005       0.34321401       1.40666587       0.00000000
Si      -0.22726179      -2.16459891      -0.94440318       0.00000000
Si       0.42811749       1.89807822      -1.37405383       0.00000000
Si       0.39543975      -3.38990013       0.98457293       0.00000000
Si       0.96793551       0.15438033       3.53624915       0.00000000
Si       3.30680484       1.50615711       0.68778614       0.00000000
Si      -1.25014347      -0.73634058       3.40676728       0.00000000
Si       2.58502752      -2.48626125       1.11177713       0.00000000
Si       2.13794847       1.27171143      -2.89235985       0.00000000
