10
Lattice="16.28999089631971 0.0 0.0 0.0 16.28999089631971 0.0 0.0 0.0 34.51007289658418" Properties=species:S:1:pos:R:3:initial_magmoms:R:1 pbc="T T T"
Si       0.69025617       1.79183484      -1.30789798       0.00000000
Si      -1.75211330      -1.25033569      -1.02715838       0.00000000
Si       1.87435998      -1.33580606      -0.77568334       0.00000000
Si      -0.88296198       0.94296294       2.25105880       0.00000000
Si      -2.07525545      -0.98459692       1.40690744       0.00000000
Si       1.70963550       0.09326025      -2.66314381       0.00000000
Si       1.47172005       1.33452567       2.76360269       0.00000000
Si       1.01444346      -3.22137098       0.49832573       0.00000000
Si      -0.83684825      -2.88353267       1.97432237       0.00000000
Si       3.32514738       1.38983022       1.25989445       0.00000000
