10
Lattice="16.28999089631971 0.0 0.0 0.0 16.28999089631971 0.0 0.0 0.0 34.51007289658418" Properties=species:S:1:pos:R:3:initial_magmoms:R:1 pbc="T T T"
Si       1.35668007      -1.35747828       1.35693682       0.00000000
Si       1.35826020       1.35598135      -1.35755801       0.00000000
Si      -1.35801585       1.35783060       1.35721291       0.00000000
Si      -1.35948195      -1.35705474      -1.35873135       0.00000000
Si      -0.00021177       2.71413784       2.71321796       0.00000000
Si       2.71419093       0.00092853       2.71487444       0.00000000
Si       2.71446786       2.71526348      -0.00013804       0.00000000
Si       2.71533123      -2.71480995       0.00006902       0.00000000
Si      -0.00006516      -2.71639008       2.71397718       0.00000000
Si      -2.71514715      -2.71534752      -0.00031059       0.00000000
