10
Lattice="16.28999089631971 0.0 0.0 0.0 16.28999089631971 0.0 0.0 0.0 34.51007289658418" Properties=species:S:1:pos:R:3:initial_magmoms:R:1 pbc="T T T"
Si       1.35681039      -1.35729909       1.35679878       0.00000000
Si       1.35379674       1.35993807      -1.35748899       0.00000000
Si      -1.35865116       1.35733167       1.35686780       0.00000000
Si      -1.35687555      -1.35861858      -1.35779958       0.00000000
Si       0.00438201       2.70977634      -2.71328698       0.00000000
Si      -0.00180819      -2.71256193      -2.71259678       0.00000000
Si       2.71379997       0.00009774       2.71446032       0.00000000
Si       2.71402803       2.71458189      -0.00013804       0.00000000
Si       2.71419093      -2.71500543      -0.00048314       0.00000000
Si      -0.00184077      -2.71404432       2.71518503       0.00000000
