10
Lattice="16.28999089631971 0.0 0.0 0.0 16.28999089631971 0.0 0.0 0.0 34.51007289658418" Properties=species:S:1:pos:R:3:initial_magmoms:R:1 pbc="T T T"
Si       1.67948271       1.69974747      -0.35980222       0.00000000
Si      -0.30985209      -0.11655495       2.40093613       0.00000000
Si       0.75930948      -2.17347696      -0.81968371       0.00000000
Si      -1.99098009       0.69196662      -1.26745216       0.00000000
Si       0.42722154       2.05042230       2.90547368       0.00000000
Si      -1.13106357       2.57753153      -2.54146123       0.00000000
Si       2.44996713       2.37995012       1.80570606       0.00000000
Si      -3.84227180       1.02980493       0.20854449       0.00000000
Si       1.00139517       3.45650735      -1.72974935       0.00000000
Si       3.51323172       0.96780519      -1.65027261       0.00000000
