10
Lattice="16.28999089631971 0.0 0.0 0.0 16.28999089631971 0.0 0.0 0.0 34.51007289658418" Properties=species:S:1:pos:R:3:initial_magmoms:R:1 pbc="T T T"
Si      -2.12670837      -0.95303016       0.53249072       0.00000000
Si       1.19772225       0.55726461       2.00707245       0.00000000
Si      -0.95417046       1.95945472      -1.01231904       0.00000000
Si       0.91069245      -1.42514694      -1.74886794       0.00000000
Si       2.64039723       2.19336609       1.09048440       0.00000000
Si       2.15650278      -3.01988907      -0.44331664       0.00000000
Si      -1.61078778       1.31098662      -3.15684519       0.00000000
Si      -0.99036684      -2.54993886      -2.62255995       0.00000000
Si      -2.29980591      -2.93303079      -0.69020184       0.00000000
Si      -3.01562109       2.36524840      -0.09265960       0.00000000
