10
Lattice="16.28999089631971 0.0 0.0 0.0 16.28999089631971 0.0 0.0 0.0 34.51007289658418" Properties=species:S:1:pos:R:3:initial_magmoms:R:1 pbc="T T T"
Si       2.02510764       0.79013016       1.08796517       0.00000000
Si       1.27581651      -1.31401656      -1.63156814       0.00000000
Si      -0.86996745      -2.17202715       0.92490498       0.00000000
Si      -1.40429574       1.37042883      -1.59239918       0.00000000
Si      -0.31944690       0.96138693       2.74130917       0.00000000
Si       2.59283043      -2.66419692      -0.30810610       0.00000000
Si      -2.85811308       2.63702520      -0.22897446       0.00000000
Si       2.83312422       2.72839581       0.02753905       0.00000000
Si       3.69538650      -0.99601947       0.92135044       0.00000000
Si      -2.81673648      -2.75600736      -0.34030402       0.00000000
