10
Lattice="16.28999089631971 0.0 0.0 0.0 16.28999089631971 0.0 0.0 0.0 34.51007289658418" Properties=species:S:1:pos:R:3:initial_magmoms:R:1 pbc="T T T"
Si      -2.21221458       0.72032751       0.17072143       0.00000000
Si       0.20471643      -2.15857161       0.91686413       0.00000000
Si       0.51018651       0.63697158      -2.23956694       0.00000000
Si       1.15525422       1.23121449       1.68523133       0.00000000
Si       2.34764964       1.96726185      -1.72819640       0.00000000
Si       2.00880135       2.93581638       0.30962455       0.00000000
Si      -2.96274375       0.21128130      -2.00141280       0.00000000
Si      -2.90004354      -0.45041850       2.11546865       0.00000000
Si      -1.16028783      -1.85945463       2.89132454       0.00000000
Si       2.68648164      -0.38553543       2.59081066       0.00000000
