10
Lattice="16.28999089631971 0.0 0.0 0.0 16.28999089631971 0.0 0.0 0.0 34.51007289658418" Properties=species:S:1:pos:R:3:initial_magmoms:R:1 pbc="T T T"
Si      -1.61533269       0.22470426      -1.67470575       0.00000000
Si      -1.47530385      -1.12055652       1.46227685       0.00000000
Si       1.20101283       1.60629174       1.41667521       0.00000000
Si       2.72253141      -2.24502264      -0.18041876       0.00000000
Si      -0.32795028       0.94972329      -3.44503897       0.00000000
Si       2.02251753       1.27843920      -2.83755782       0.00000000
Si      -0.10552662      -2.46396024       2.81008230       0.00000000
Si      -2.43639756      -2.14311240      -1.94440212       0.00000000
Si       2.62000215       0.26036307       2.79334836       0.00000000
Si      -3.32627139      -1.93578957       0.21235479       0.00000000
