10
Lattice="16.28999089631971 0.0 0.0 0.0 16.28999089631971 0.0 0.0 0.0 34.51007289658418" Properties=species:S:1:pos:R:3:initial_magmoms:R:1 pbc="T T T"
Si      -1.31390253       1.35583299       1.38880689       0.00000000
Si       1.13200839       1.71356139      -1.20104991       0.00000000
Si       1.41898932      -1.34592867       1.37667315       0.00000000
Si      -1.20101283      -1.60629174      -1.41667521       0.00000000
Si      -2.58173694       2.69347005      -0.10447240       0.00000000
Si       2.82999654      -2.52618804      -0.11904601       0.00000000
Si      -0.59354244       3.51546345      -1.33816475       0.00000000
Si       2.61089604       0.63858429      -2.70676599       0.00000000
Si      -2.67631668      -2.72684826       0.04560164       0.00000000
Si      -2.65142556       0.00425169       2.75212464       0.00000000
