10
Lattice="16.28999089631971 0.0 0.0 0.0 16.28999089631971 0.0 0.0 0.0 34.51007289658418" Properties=species:S:1:pos:R:3:initial_magmoms:R:1 pbc="T T T"
Si       1.35195597      -1.35886293      -1.36242393       0.00000000
Si      -1.36324494       1.35713619      -1.36128510       0.00000000
Si       1.35461124       1.33639902       1.39037710       0.00000000
Si      -1.34700381      -1.37135736       1.38357862       0.00000000
Si       2.70575271      -2.71559187      -0.00013804       0.00000000
Si       2.71067229       2.71611315      -0.00069020       0.00000000
Si       2.70998811      -0.00017919      -2.71853251       0.00000000
Si      -0.00496845       2.71453302      -2.71894663       0.00000000
Si      -2.71997388       2.71389771       0.00048314       0.00000000
Si      -0.00490329      -2.71619460      -2.71849800       0.00000000
