10
Lattice="16.28999089631971 0.0 0.0 0.0 16.28999089631971 0.0 0.0 0.0 34.51007289658418" Properties=species:S:1:pos:R:3:initial_magmoms:R:1 pbc="T T T"
Si      -1.34477208      -1.35692442       1.36870132       0.00000000
Si       1.19364975      -1.34864910      -1.52149820       0.00000000
Si       1.36643778       1.35900954       1.36652718       0.00000000
Si      -1.36032903       1.27853694      -1.49029072       0.00000000
Si       2.20506327       0.53069562      -2.58481039       0.00000000
Si       0.47514672       2.32660296      -2.66956763       0.00000000
Si      -0.69067971      -2.26427742      -2.79002159       0.00000000
Si      -2.38071671      -0.45141219      -2.87484739       0.00000000
Si      -2.70155523       2.71215468      -0.02506468       0.00000000
Si       2.70909216      -2.71353933      -0.02577214       0.00000000
