10
Lattice="16.28999089631971 0.0 0.0 0.0 16.28999089631971 0.0 0.0 0.0 34.51007289658418" Properties=species:S:1:pos:R:3:initial_magmoms:R:1 pbc="T T T"
Si       1.36032903      -1.27853694       1.49029072       0.00000000
Si       1.83547575       1.04806602      -1.17927690       0.00000000
Si      -1.02038768      -1.72994913      -1.38455667       0.00000000
Si      -1.34122620       1.43361774       1.46522604       0.00000000
Si       2.55397878      -2.62718604      -0.03120748       0.00000000
Si       3.56539230      -0.74784132      -1.09451967       0.00000000
Si      -2.70758438      -2.69237862       0.03646681       0.00000000
Si       0.66964932      -3.54281436      -1.29973086       0.00000000
Si      -2.61012131       2.84612364      -0.04171235       0.00000000
Si       2.69702127       2.77068465       0.14321343       0.00000000
