10
Lattice="16.28999089631971 0.0 0.0 0.0 16.28999089631971 0.0 0.0 0.0 34.51007289658418" Properties=species:S:1:pos:R:3:initial_magmoms:R:1 pbc="T T T"
Si       1.33542162       1.34153037       1.36042925       0.00000000
Si       1.35210258      -1.39271355      -1.30141354       0.00000000
Si      -1.22165226       1.33071381      -1.51902037       0.00000000
Si      -1.38152232      -1.37150397       1.35287154       0.00000000
Si      -2.03690160      -0.57474378      -2.73113702       0.00000000
Si      -0.31135077      -2.37664584      -2.59402217       0.00000000
Si       2.69099397       2.67211974       0.00605997       0.00000000
Si       2.69360037      -0.01428633       2.71488134       0.00000000
Si      -2.73510729       2.67431205      -0.02442624       0.00000000
Si      -0.02010186       2.69750364       2.71470879       0.00000000
