10
Lattice="16.28999089631971 0.0 0.0 0.0 16.28999089631971 0.0 0.0 0.0 34.51007289658418" Properties=species:S:1:pos:R:3:initial_magmoms:R:1 pbc="T T T"
Si      -1.69277535      -0.70499862       1.40145484       0.00000000
Si      -1.04086584       0.56467656      -2.00872894       0.00000000
Si       1.50817707      -1.80348219       0.16350882       0.00000000
Si       1.52619381       1.73288133       0.50764346       0.00000000
Si       3.04090317      -0.11220552       0.69237598       0.00000000
Si      -3.20491089      -1.71385461      -0.06153149       0.00000000
Si      -2.95104753       1.17511173       1.84601385       0.00000000
Si       1.40680440       3.10432014      -1.48855832       0.00000000
Si      -0.65353851      -2.12149557       3.00517334       0.00000000
Si      -2.79218745      -0.93146220      -2.30479102       0.00000000
