10
Lattice="16.28999089631971 0.0 0.0 0.0 16.28999089631971 0.0 0.0 0.0 34.51007289658418" Properties=species:S:1:pos:R:3:initial_magmoms:R:1 pbc="T T T"
Si      -0.14204880       1.91376616       1.33288329       0.00000000
Si       0.90324792      -1.92640653       1.05500803       0.00000000
Si      -2.36908728      -0.29999664      -0.53476839       0.00000000
Si       1.51068573       0.54092574      -1.91361912       0.00000000
Si       3.09138588      -0.83347785       1.42954606       0.00000000
Si      -0.22977045       3.79235177      -0.06353308       0.00000000
Si      -1.71654246       1.51664202       3.11233204       0.00000000
Si       1.27558845      -3.77385543      -0.32984746       0.00000000
Si      -3.73280463      -1.37021706       1.04113497       0.00000000
Si      -2.97217566      -1.46398230      -2.47178535       0.00000000
