10
Lattice="16.28999089631971 0.0 0.0 0.0 16.28999089631971 0.0 0.0 0.0 34.51007289658418" Properties=species:S:1:pos:R:3:initial_magmoms:R:1 pbc="T T T"
Si      -1.36684503       1.36777812      -1.27177627       0.00000000
Si      -1.35557235      -1.33058937       1.35436927       0.00000000
Si       1.25501418      -1.43746806      -1.38048306       0.00000000
Si       1.36360332       1.38882969       1.34977943       0.00000000
Si       0.19701126       2.19239095      -2.73489002       0.00000000
Si       1.96162551       0.44808708      -3.17927127       0.00000000
Si      -2.69099397      -2.67211974      -0.00605997       0.00000000
Si       0.00260640      -2.68640607       2.70882137       0.00000000
Si       2.73360861      -2.67801672      -0.01687544       0.00000000
Si      -2.71109583       0.02538389       2.70864882       0.00000000
