10
Lattice="16.28999089631971 0.0 0.0 0.0 16.28999089631971 0.0 0.0 0.0 34.51007289658418" Properties=species:S:1:pos:R:3:initial_magmoms:R:1 pbc="T T T"
Si      -1.42218216       0.78858261       1.75808214       0.00000000
Si      -0.78260418      -1.27461105      -1.91755327       0.00000000
Si       0.84996333       1.78139295      -1.42526681       0.00000000
Si       1.41372765      -1.43710380       1.38668452       0.00000000
Si      -1.68179589      -1.16258472       3.04896664       0.00000000
Si       2.79112860       2.47827915      -0.35452218       0.00000000
Si       1.28609550      -1.47810573      -3.19853338       0.00000000
Si      -2.39080185       0.08395866      -2.97708212       0.00000000
Si       0.81756252      -3.65255099       0.79317996       0.00000000
Si       0.55337130      -1.52143713       3.57248474       0.00000000
