10
Lattice="16.28999089631971 0.0 0.0 0.0 16.28999089631971 0.0 0.0 0.0 34.51007289658418" Properties=species:S:1:pos:R:3:initial_magmoms:R:1 pbc="T T T"
Si       2.00542932      -0.01571985       1.16119558       0.00000000
Si      -0.47693862      -1.73737737      -1.49173324       0.00000000
Si      -1.82819412      -0.54136557       1.47178641       0.00000000
Si       0.25402626       2.05812747      -1.30317010       0.00000000
Si       1.18767132       1.59358554       2.69396133       0.00000000
Si      -2.71210581      -1.37852496      -2.01525134       0.00000000
Si      -1.00665684       0.58358925       3.48358675       0.00000000
Si      -1.91545965       2.41930935      -2.01173131       0.00000000
Si      -0.08773794      -3.79279160      -0.37829963       0.00000000
Si       3.76006499       0.79594569      -0.19063375       0.00000000
