10
Lattice="16.28999089631971 0.0 0.0 0.0 16.28999089631971 0.0 0.0 0.0 34.51007289658418" Properties=species:S:1:pos:R:3:initial_magmoms:R:1 pbc="T T T"
Si      -1.35637056      -1.35834165      -1.35714389       0.00000000
Si       1.35902583       1.35674523      -1.35676427       0.00000000
Si      -1.35814617       1.35977517       1.35748899       0.00000000
Si       1.35948195      -1.35514881       1.36232040       0.00000000
Si      -2.70350469      -0.00864999       2.70693712       0.00000000
Si      -2.71274112       2.71278999      -0.00044863       0.00000000
Si      -2.71363707      -0.00053757      -2.71432228       0.00000000
Si       0.00104256       2.71440270      -2.71435679       0.00000000
Si       0.00125433      -2.71514389      -2.71439130       0.00000000
Si      -2.71440270      -2.71653832      -0.00031059       0.00000000
