10
Lattice="16.28999089631971 0.0 0.0 0.0 16.28999089631971 0.0 0.0 0.0 34.51007289658418" Properties=species:S:1:pos:R:3:initial_magmoms:R:1 pbc="T T T"
Si       1.35694754       1.35651717      -1.35731644       0.00000000
Si      -1.35809730      -1.35873261      -1.35745448       0.00000000
Si       1.35683803      -1.35953082       1.36194079       0.00000000
Si      -1.36215351       1.35619137       1.36114706       0.00000000
Si      -0.00073305       2.71383255      -2.71494346       0.00000000
Si      -2.71595025       2.71292031      -0.00113883       0.00000000
Si       2.71456464      -0.00166158      -2.71490895       0.00000000
Si       2.71508592      -2.71513575       0.00031059       0.00000000
Si       2.71516086       2.71544526      -0.00031059       0.00000000
Si      -2.71608057      -0.00107514      -2.71504699       0.00000000
