10
Lattice="16.28999089631971 0.0 0.0 0.0 16.28999089631971 0.0 0.0 0.0 34.51007289658418" Properties=species:S:1:pos:R:3:initial_magmoms:R:1 pbc="T T T"
Si      -1.31701392       1.35018036      -1.32346204       0.00000000
Si       1.10255607       1.66817745       1.22945654       0.00000000
Si       1.41859836      -1.39268097      -1.29823516       0.00000000
Si      -1.57789827      -1.05000453       1.48320925       0.00000000
Si       1.76191011       0.21892131       2.94602304       0.00000000
Si      -3.46279788       0.49216977       1.23301108       0.00000000
Si      -2.59283043       2.66419692       0.30810610       0.00000000
Si      -0.56772279       3.45432708       1.39607127       0.00000000
Si      -2.65748544      -0.02150280      -2.67235801       0.00000000
Si       0.05563035       2.69039124      -2.66800974       0.00000000
