10
Lattice="16.28999089631971 0.0 0.0 0.0 16.28999089631971 0.0 0.0 0.0 34.51007289658418" Properties=species:S:1:pos:R:3:initial_magmoms:R:1 pbc="T T T"
Si      -2.44872909      -0.14465520      -0.03992818       0.00000000
Si      -0.24790122       1.23235479       2.12212910       0.00000000
Si       1.15263153      -2.13680817       0.62080205       0.00000000
Si       0.53126577       0.46195182      -2.41094406       0.00000000
Si      -1.66741182       2.93418738       1.14214601       0.00000000
Si      -1.04169663      -3.14680446       1.41042747       0.00000000
Si       0.21898647      -1.67226624      -3.37632938       0.00000000
Si      -2.75678928      -1.55571129       2.25181803       0.00000000
Si       2.75742037       1.07830026      -2.60206095       0.00000000
Si      -3.45680316       1.96775055      -0.40532103       0.00000000
