10
Lattice="16.28999089631971 0.0 0.0 0.0 16.28999089631971 0.0 0.0 0.0 34.51007289658418" Properties=species:S:1:pos:R:3:initial_magmoms:R:1 pbc="T T T"
Si       1.35691627       1.35702216      -1.35786860       0.00000000
Si      -1.35836889      -1.35853713      -1.35745448       0.00000000
Si      -1.35824789       1.35560493       1.36163020       0.00000000
Si       1.35686740      -1.35988920       1.36011175       0.00000000
Si      -0.01598212      -2.70481441       2.72043057       0.00000000
Si       2.71349860      -0.00094482      -2.71501248       0.00000000
Si      -0.00052128       2.71347417      -2.71521954       0.00000000
Si      -0.00129180      -2.71501846      -2.71480542       0.00000000
Si      -2.71508592       2.71513575      -0.00031059       0.00000000
Si      -2.71539543      -0.00146610      -2.71518503       0.00000000
