10
Lattice="16.28999089631971 0.0 0.0 0.0 16.28999089631971 0.0 0.0 0.0 34.51007289658418" Properties=species:S:1:pos:R:3:initial_magmoms:R:1 pbc="T T T"
Si       1.35786924       1.35653346       1.35724742       0.00000000
Si      -1.35749457       1.35736425      -1.35762703       0.00000000
Si       1.35718506      -1.35777150      -1.35769605       0.00000000
Si      -1.35803214      -1.35868374       1.35610858       0.00000000
Si       2.71109678       0.00158013       2.71418424       0.00000000
Si      -2.71275741      -0.00047241      -2.71570268       0.00000000
Si      -2.70998811       0.00017919       2.71853251       0.00000000
Si       2.71425431       2.71477737      -0.00037961       0.00000000
Si       2.71417456      -0.00151497      -2.71497797       0.00000000
Si      -2.71495656       2.71471221      -0.00041412       0.00000000
