10
Lattice="16.28999089631971 0.0 0.0 0.0 16.28999089631971 0.0 0.0 0.0 34.51007289658418" Properties=species:S:1:pos:R:3:initial_magmoms:R:1 pbc="T T T"
Si       0.80801658       1.93826565      -1.06042611       0.00000000
Si      -0.19898235       0.97826337       2.18324647       0.00000000
Si      -2.02510764      -0.79013016      -1.08796517       0.00000000
Si       1.67027886      -1.78614963      -0.16661473       0.00000000
Si      -2.34455454       0.17125677       1.65334401       0.00000000
Si       1.99339101       0.61572942      -2.69251190       0.00000000
Si      -0.74929113      -2.10414672      -2.71953330       0.00000000
Si       3.43149992      -0.68626512      -1.33685195       0.00000000
Si       0.56772279      -3.45432708      -1.39607127       0.00000000
Si       0.76452228      -0.47421819       3.96562371       0.00000000
