10
Lattice="16.28999089631971 0.0 0.0 0.0 16.28999089631971 0.0 0.0 0.0 34.51007289658418" Properties=species:S:1:pos:R:3:initial_magmoms:R:1 pbc="T T T"
Si      -0.39141612       0.53390475      -2.20850786       0.00000000
Si       1.42328241      -1.81376118       0.47475534       0.00000000
Si       0.98312823       1.96792974       0.90709777       0.00000000
Si      -2.13560271      -0.48865113       1.08706790       0.00000000
Si      -1.92414222      -1.15737192      -2.73737502       0.00000000
Si       2.30293100      -1.22083776       2.58763573       0.00000000
Si      -0.31980528       2.45172645       2.84646142       0.00000000
Si      -2.50794324       1.35879777       2.47192339       0.00000000
Si      -1.90612548       2.37899160      -2.39324038       0.00000000
Si       3.20780141       1.41147963       1.71466844       0.00000000
