10
Lattice="16.28999089631971 0.0 0.0 0.0 16.28999089631971 0.0 0.0 0.0 34.51007289658418" Properties=species:S:1:pos:R:3:initial_magmoms:R:1 pbc="T T T"
Si      -1.35622395      -1.35814617      -1.35728193       0.00000000
Si       1.35881406       1.35665413      -1.35690231       0.00000000
Si      -1.35654975       1.35752715       1.35835174       0.00000000
Si       1.35941679      -1.35656604       1.36097451       0.00000000
Si      -2.71487511       2.71351231      -0.00062118       0.00000000
Si      -2.71427238      -0.00105885      -2.71421875       0.00000000
Si       0.00078192       2.71490673      -2.71470189       0.00000000
Si       0.00123804      -2.71549413      -2.71449483       0.00000000
Si      -2.71450044      -2.71554300       0.00037961       0.00000000
Si       2.71648782       2.71362960      -0.00048314       0.00000000
