10
Lattice="16.28999089631971 0.0 0.0 0.0 16.28999089631971 0.0 0.0 0.0 34.51007289658418" Properties=species:S:1:pos:R:3:initial_magmoms:R:1 pbc="T T T"
Si      -1.35941679       1.35656604      -1.36097451       0.00000000
Si       1.35718506      -1.35975888      -1.36059489       0.00000000
Si       1.34372952       1.37099898       1.36722083       0.00000000
Si      -1.35606105      -1.37971413       1.39106731       0.00000000
Si       2.71041260      -2.71471221      -0.00365807       0.00000000
Si       2.70858706       2.71653669      -0.00379611       0.00000000
Si      -2.71067229      -2.71611315       0.00069020       0.00000000
Si      -2.71596654       2.71409319      -0.00262277       0.00000000
Si      -0.00060273       2.71322017      -2.71787682       0.00000000
Si       2.71357013      -0.00151497      -2.71822192       0.00000000
