10
Lattice="16.28999089631971 0.0 0.0 0.0 16.28999089631971 0.0 0.0 0.0 34.51007289658418" Properties=species:S:1:pos:R:3:initial_magmoms:R:1 pbc="T T T"
Si       2.06547426      -1.31170338      -0.13631486       0.00000000
Si      -1.87769943      -0.47961018      -1.60354594       0.00000000
Si      -0.73024812      -1.73680722       1.91914074       0.00000000
Si       0.75533472       2.17417743      -1.50619297       0.00000000
Si      -0.47125341      -1.76749758      -3.03989049       0.00000000
Si       1.06455150      -3.11728698      -1.42675074       0.00000000
Si       2.22853716       0.98321553      -3.06373696       0.00000000
Si      -3.70255410      -1.46114784      -0.47889655       0.00000000
Si       3.61618144      -0.31806225      -1.71470295       0.00000000
Si      -2.99744145      -2.60749143       1.45221919       0.00000000
