10
Lattice="16.28999089631971 0.0 0.0 0.0 16.28999089631971 0.0 0.0 0.0 34.51007289658418" Properties=species:S:1:pos:R:3:initial_magmoms:R:1 pbc="T T T"
Si       1.39232259       1.48217727       1.34485829       0.00000000
Si       1.47320244      -1.19096190      -1.55754399       0.00000000
Si      -1.23114933       1.49192032      -1.54025443       0.00000000
Si      -0.75533472      -2.17417743       1.50619297       0.00000000
Si      -2.63303415      -2.65378761      -0.09735297       0.00000000
Si       2.86084672      -2.49223968      -0.20850998       0.00000000
Si      -2.63331108       2.82400901      -0.11795550       0.00000000
Si       0.12947292      -2.56196088      -2.92476482       0.00000000
Si      -2.58649362       0.15213231      -2.92738759       0.00000000
Si       1.31013954      -3.48588081       1.36987811       0.00000000
