10
Lattice="16.28999089631971 0.0 0.0 0.0 16.28999089631971 0.0 0.0 0.0 34.51007289658418" Properties=species:S:1:pos:R:3:initial_magmoms:R:1 pbc="T T T"
Si      -0.38920068       2.05541423      -1.11343361       0.00000000
Si      -0.00562005      -1.44713844      -1.89653663       0.00000000
Si       2.39459742       0.18046062       0.33354004       0.00000000
Si      -1.51068573      -0.54092574       1.91361912       0.00000000
Si       2.88363366      -1.85820030       1.40380153       0.00000000
Si       0.08773794       3.79279160       0.37829963       0.00000000
Si      -1.65273453       1.37284042       3.24650241       0.00000000
Si      -0.12500946      -0.07569963      -3.89273840       0.00000000
Si      -0.60743781      -2.46733227       2.96862715       0.00000000
Si      -2.62436787       2.41426664      -1.63695171       0.00000000
