10
Lattice="16.28999089631971 0.0 0.0 0.0 16.28999089631971 0.0 0.0 0.0 34.51007289658418" Properties=species:S:1:pos:R:3:initial_magmoms:R:1 pbc="T T T"
Si       0.97010208       1.89203463       0.92725167       0.00000000
Si       1.23416298      -1.92490785       0.61597064       0.00000000
Si      -2.13273241      -0.32778738       1.01683987       0.00000000
Si      -0.10292022       0.47006424      -2.47813521       0.00000000
Si       0.03927519      -2.02196367      -2.69751587       0.00000000
Si      -0.42513642       3.44126250       0.01639229       0.00000000
Si       2.95011900       2.11106997      -0.24312360       0.00000000
Si      -2.35505833      -0.05455521      -2.82030277       0.00000000
Si       1.07619885      -3.37063069      -1.16802858       0.00000000
Si      -0.46815831       2.92587948      -2.26303380       0.00000000
