10
Lattice="16.28999089631971 0.0 0.0 0.0 16.28999089631971 0.0 0.0 0.0 34.51007289658418" Properties=species:S:1:pos:R:3:initial_magmoms:R:1 pbc="T T T"
Si      -1.39523850       1.54922787      -0.91085937       0.00000000
Si       1.98001692       0.21903534      -1.17037527       0.00000000
Si      -0.97010208      -1.89203463      -0.92725167       0.00000000
Si      -0.10112832       0.49523229       2.27566450       0.00000000
Si       0.95632074      -1.41793047       3.15853619       0.00000000
Si      -1.43826039       1.03384485      -3.19028547       0.00000000
Si       3.65155011      -0.25785441       0.41329286       0.00000000
Si      -2.38053426       0.32863446       2.83348563       0.00000000
Si      -3.10283449      -2.21982201       0.08958820       0.00000000
Si      -0.91851165       3.71625399      -0.18193721       0.00000000
