10
Lattice="16.28999089631971 0.0 0.0 0.0 16.28999089631971 0.0 0.0 0.0 34.51007289658418" Properties=species:S:1:pos:R:3:initial_magmoms:R:1 pbc="T T T"
Si       0.80472600      -1.91997198      -1.27659733       0.00000000
Si      -2.01188505       0.80557308      -1.21585957       0.00000000
Si       1.36233270       2.08883412      -0.09583453       0.00000000
Si       0.64425321      -1.69034814       1.86775521       0.00000000
Si       2.50321914      -0.15108975       1.79186752       0.00000000
Si       1.93109805      -0.30797874      -2.73392401       0.00000000
Si      -3.13099990       1.27619118       1.04444794       0.00000000
Si       3.18200715       1.04889681      -1.22172628       0.00000000
Si      -0.91553058       2.35647882      -2.72650434       0.00000000
Si       0.92665665      -3.62408517       0.59505752       0.00000000
