10
Lattice="16.28999089631971 0.0 0.0 0.0 16.28999089631971 0.0 0.0 0.0 34.51007289658418" Properties=species:S:1:pos:R:3:initial_magmoms:R:1 pbc="T T T"
Si      -1.02409219       1.92147066       0.82334178       0.00000000
Si       2.16527657      -0.65818116       0.54626025       0.00000000
Si      -1.01792366      -1.79463672       1.28163580       0.00000000
Si      -0.58553102      -0.06372648      -2.54073652       0.00000000
Si      -1.51607513      -2.31971229      -1.99868650       0.00000000
Si       1.82634683      -2.98507734       0.16475118       0.00000000
Si      -0.41658091      -3.58169859      -0.22341834       0.00000000
Si      -3.08206541       1.02307716       1.62753046       0.00000000
Si      -3.26733158      -1.29396357       1.34779165       0.00000000
Si       2.40136754      -0.74997531       2.86264666       0.00000000
