10
Lattice="16.28999089631971 0.0 0.0 0.0 16.28999089631971 0.0 0.0 0.0 34.51007289658418" Properties=species:S:1:pos:R:3:initial_magmoms:R:1 pbc="T T T"
Si       1.36617062      -1.28420081       1.36870477       0.00000000
Si      -1.34775067      -1.36560766      -1.36394237       0.00000000
Si       1.37284952       1.34492521      -1.36031881       0.00000000
Si      -1.36913933       1.35078961       1.49891134       0.00000000
Si       2.43678200       0.48873910       2.55288407       0.00000000
Si      -0.02479175      -2.57157265       2.76833057       0.00000000
Si      -2.69828930       2.69306932       0.01018048       0.00000000
Si      -2.69926670      -0.01194871      -2.72160391       0.00000000
Si      -2.71260821      -2.71114537       0.00707457       0.00000000
Si       0.01598212       2.70481441      -2.72043057       0.00000000
