10
Lattice="16.28999089631971 0.0 0.0 0.0 16.28999089631971 0.0 0.0 0.0 34.51007289658418" Properties=species:S:1:pos:R:3:initial_magmoms:R:1 pbc="T T T"
Si      -0.16472448       1.42906631      -1.88746047       0.00000000
Si      -1.87435998       1.33580606       0.77568334       0.00000000
Si      -0.85991652      -1.88556491       1.27400907       0.00000000
Si       2.13245874       0.87897582       0.81171188       0.00000000
Si      -1.23533586      -0.34387359      -3.07163977       0.00000000
Si      -1.18410381       3.12764090      -0.53221464       0.00000000
Si      -2.62629824      -1.63124543      -1.67201397       0.00000000
Si      -3.62647328       0.08547037      -0.25147504       0.00000000
Si       2.81054628      -0.87778406       2.18165901       0.00000000
Si       1.45078740       2.72563628       2.03557779       0.00000000
