10
Lattice="10.86 0.0 0.0 0.0 10.86 0.0 0.0 0.0 10.86" Properties=species:S:1:pos:R:3:initial_magmoms:R:1 pbc="T T T"
Si       1.35750000       1.35750000       1.35750000       0.00000000
Si      -1.35750000       1.35750000      -1.35750000       0.00000000
Si      -1.35750000      -1.35750000       1.35750000       0.00000000
Si       1.35750000      -1.35750000      -1.35750000       0.00000000
Si      -2.08689018       2.58507096       0.64867866       0.00000000
Si       2.63156262      -2.49272838      -0.08095044       0.00000000
Si      -0.22214130       2.65224006       2.49891858       0.00000000
Si      -0.11577846      -2.49006768       2.84180136       0.00000000
Si      -2.64694038      -2.73340770      -0.00591870       0.00000000
Si       2.71500000       0.00000000       2.71500000       0.00000000
