10
Lattice="10.86 0.0 0.0 0.0 10.86 0.0 0.0 0.0 10.86" Properties=species:S:1:pos:R:3:initial_magmoms:R:1 pbc="T T T"
Si      -1.27406262       1.13522838      -1.27654956       0.00000000
Si       1.44093738       1.13522838       1.43845044       0.00000000
Si       1.44093738      -1.57977162      -1.27654956       0.00000000
Si      -2.46800016      -0.46204956      -2.53729782       0.00000000
Si      -2.63156262       2.49272838       0.08095044       0.00000000
Si       0.08343738       2.49272838      -2.63404956       0.00000000
Si       0.08343738       2.49272838       2.79595044       0.00000000
Si       2.79843738       2.49272838       0.08095044       0.00000000
Si       2.79843738      -0.22227162      -2.63404956       0.00000000
Si       2.79843738      -0.22227162       2.79595044       0.00000000
