10
Lattice="16.28999089631971 0.0 0.0 0.0 16.28999089631971 0.0 0.0 0.0 34.33025523377368" Properties=species:S:1:pos:R:3:initial_magmoms:R:1 pbc="T T T"
Si       1.35692442       1.35660188      -1.35662945       0.00000000
Si      -1.35791811      -1.35810796      -1.35638914       0.00000000
Si       1.35689184      -1.35942025       1.35992516       0.00000000
Si      -1.36112724       1.35735122       1.35841463       0.00000000
Si       2.71340901      -0.00103767      -2.71360221       0.00000000
Si      -2.71350675       2.71502498       0.00013732       0.00000000
Si      -0.00040725       2.71409645      -2.71452913       0.00000000
Si       0.00058644      -2.71556322      -2.71353355       0.00000000
Si      -2.71597794      -0.00095134      -2.71428882       0.00000000
Si      -2.71553160      -2.71562838       0.00154486       0.00000000
