10
Lattice="16.28999089631971 0.0 0.0 0.0 16.28999089631971 0.0 0.0 0.0 34.33025523377368" Properties=species:S:1:pos:R:3:initial_magmoms:R:1 pbc="T T T"
Si       1.89685647       1.09527185       0.79484884       0.00000000
Si      -0.16591365      -0.04963563      -2.34688622       0.00000000
Si      -1.61211542       1.60915619       0.71554591       0.00000000
Si       0.32213475      -2.21578209       0.86282279       0.00000000
Si       1.03710285       1.80927233       2.88875527       0.00000000
Si      -1.77040209       2.87525735      -1.24399182       0.00000000
Si      -1.55352517      -1.90636983      -2.64573126       0.00000000
Si      -3.09252092      -1.63582551       1.59289040       0.00000000
Si       2.43703287      -2.30654997       1.88510970       0.00000000
Si       2.11810725       3.20434793      -0.29627027       0.00000000
