10
Lattice="16.28999089631971 0.0 0.0 0.0 16.28999089631971 0.0 0.0 0.0 34.33025523377368" Properties=species:S:1:pos:R:3:initial_magmoms:R:1 pbc="T T T"
Si       2.11489812      -0.09076788       1.02228691       0.00000000
Si      -1.65120327      -0.72036009       1.51983558       0.00000000
Si       0.51616494      -1.70194662      -1.54733413       0.00000000
Si      -0.32213475       2.21578209      -0.86282279       0.00000000
Si      -3.41465567       0.57995658       0.73006762       0.00000000
Si       1.57472172       3.31105394      -0.06797394       0.00000000
Si      -3.43825604      -0.05678694      -1.64400818       0.00000000
Si       2.72834694      -1.39799151      -2.29315934       0.00000000
Si       3.48153138      -1.60125813      -0.10995987       0.00000000
Si       3.36113199       1.82808009       0.29582397       0.00000000
