10
Lattice="16.28999089631971 0.0 0.0 0.0 16.28999089631971 0.0 0.0 0.0 34.33025523377368" Properties=species:S:1:pos:R:3:initial_magmoms:R:1 pbc="T T T"
Si      -1.41151125       1.72211364      -0.53414474       0.00000000
Si      -1.12422081      -1.84629231      -0.79622205       0.00000000
Si       1.82857693       0.63601047      -1.31852285       0.00000000
Si      -0.09605236       0.73313145       2.39254548       0.00000000
Si       1.99326883       2.69983944      -0.16437335       0.00000000
Si       0.58189346      -3.39881076      -0.44025144       0.00000000
Si      -1.62041421      -1.11435003      -2.95343351       0.00000000
Si      -1.90224750       1.23668793      -2.80529837       0.00000000
Si      -3.03748131      -2.01013713       0.57403652       0.00000000
Si      -0.19984360       3.70492448      -0.20670258       0.00000000
