10
Lattice="16.28999089631971 0.0 0.0 0.0 16.28999089631971 0.0 0.0 0.0 34.33025523377368" Properties=species:S:1:pos:R:3:initial_magmoms:R:1 pbc="T T T"
Si      -1.89685647      -1.09527185      -0.79484884       0.00000000
Si       1.78641027      -1.48297385       0.36379792       0.00000000
Si      -0.85975362       0.71400047       2.09390643       0.00000000
Si       0.22125078       2.10907607      -1.09111911       0.00000000
Si      -3.50897188       0.51388434      -0.07930293       0.00000000
Si       1.27311237       3.25369292       0.68265751       0.00000000
Si       0.84115044       2.16802958       2.72345500       0.00000000
Si       0.54017640      -3.40182182       1.09026086       0.00000000
Si      -1.57472172      -3.31105394       0.06797394       0.00000000
Si      -2.64541455       2.11775864       1.48615758       0.00000000
