10
Lattice="16.28999089631971 0.0 0.0 0.0 16.28999089631971 0.0 0.0 0.0 34.33025523377368" Properties=species:S:1:pos:R:3:initial_magmoms:R:1 pbc="T T T"
Si      -2.17689786       1.00631312       0.31336674       0.00000000
Si       0.35554554      -1.28413323       2.05229814       0.00000000
Si       1.91686059       1.54613114      -0.08012686       0.00000000
Si       0.33901119      -0.59407349      -2.42196653       0.00000000
Si       2.12441148      -2.72584710       1.03546974       0.00000000
Si      -2.60084511       1.54608227      -2.00224459       0.00000000
Si       0.54841914       3.39302618      -1.17131463       0.00000000
Si      -1.85569164      -0.34301201      -3.21115088       0.00000000
Si       2.27416545       1.99426904       2.30273749       0.00000000
Si       1.23859386       0.37700599       3.66409907       0.00000000
