10
Lattice="16.28999089631971 0.0 0.0 0.0 16.28999089631971 0.0 0.0 0.0 34.33025523377368" Properties=species:S:1:pos:R:3:initial_magmoms:R:1 pbc="T T T"
Si      -1.03557159      -1.61726306       1.36136158       0.00000000
Si      -0.74209095       2.25157122      -0.29627027       0.00000000
Si       1.63514133       1.08043425       1.38775126       0.00000000
Si      -0.35730486      -0.44813790      -2.38286435       0.00000000
Si       0.66572343       2.85496911      -2.21045771       0.00000000
Si       0.27745128       2.39142087       2.82423637       0.00000000
Si      -2.45628765      -0.35930853       2.81986956       0.00000000
Si      -2.27416545      -1.99426904      -2.30273749       0.00000000
Si      -1.91861991      -3.27840227      -0.25043935       0.00000000
Si      -2.72605005       2.21086251      -1.53191984       0.00000000
