10
Lattice="16.28999089631971 0.0 0.0 0.0 16.28999089631971 0.0 0.0 0.0 34.33025523377368" Properties=species:S:1:pos:R:3:initial_magmoms:R:1 pbc="T T T"
Si      -1.35591444      -1.35637056      -1.35937588       0.00000000
Si       1.35733167      -1.35749457       1.35789967       0.00000000
Si       1.35772263       1.35933534      -1.35570254       0.00000000
Si      -1.35782037       1.35783666       1.35838030       0.00000000
Si       0.00700470       2.70629028      -2.71737854       0.00000000
Si      -2.71309950       0.00092853       2.71466645       0.00000000
Si       0.00040725      -2.71409645       2.71452913       0.00000000
Si       2.71381626      -2.71513412       0.00092692       0.00000000
Si       2.70858717       0.00627165      -2.72081157       0.00000000
Si      -2.71579875       2.71437012       0.00065228       0.00000000
