10
Lattice="16.28999089631971 0.0 0.0 0.0 16.28999089631971 0.0 0.0 0.0 34.33025523377368" Properties=species:S:1:pos:R:3:initial_magmoms:R:1 pbc="T T T"
Si       0.35323236       1.06945479       2.05562817       0.00000000
Si       1.70873955      -1.07737173      -1.33788512       0.00000000
Si      -1.28835981      -1.78380387       1.04600913       0.00000000
Si      -0.52258320       1.49247351      -1.86152480       0.00000000
Si       0.56651733      -3.17216799       1.59869222       0.00000000
Si      -1.77578919       2.17342809       2.38760193       0.00000000
Si       0.24663060      -1.64074509      -3.44929999       0.00000000
Si       2.12525856      -3.17814642      -0.19321078       0.00000000
Si      -2.38306410      -2.95446843      -0.63641463       0.00000000
Si       2.19424671       2.59253721       1.92733594       0.00000000
