10
Lattice="16.28999089631971 0.0 0.0 0.0 16.28999089631971 0.0 0.0 0.0 34.33025523377368" Properties=species:S:1:pos:R:3:initial_magmoms:R:1 pbc="T T T"
Si       0.99230535      -2.08094976       0.26997328       0.00000000
Si       0.97256187       1.65791475       1.35635481       0.00000000
Si       0.98124444       0.66256317      -2.05504456       0.00000000
Si      -2.26470096      -0.85043574       0.41635757       0.00000000
Si      -2.16700983      -2.08933911      -1.83073054       0.00000000
Si      -1.74737943      -0.42091731       3.04887167       0.00000000
Si      -0.05955624      -3.22556661      -1.50380334       0.00000000
Si      -0.51466626       1.60306632       3.21520185       0.00000000
Si       3.19907907      -1.87841619      -0.42895678       0.00000000
Si       1.95654303       2.79164988      -1.66999620       0.00000000
