10
Lattice="16.28999089631971 0.0 0.0 0.0 16.28999089631971 0.0 0.0 0.0 34.33025523377368" Properties=species:S:1:pos:R:3:initial_magmoms:R:1 pbc="T T T"
Si       1.34307792       1.34825814       1.38988862       0.00000000
Si      -1.36686132      -1.37029851       1.38803479       0.00000000
Si      -1.22368851       1.54776177      -1.34005823       0.00000000
Si       1.69793928      -1.11146670      -1.48784320       0.00000000
Si      -2.52353277       0.28460259      -2.75258908       0.00000000
Si       2.70417258       2.70528030       0.03752299       0.00000000
Si       2.71111212      -2.69931816       0.02396253       0.00000000
Si       2.69959509      -0.00146610       2.74892120       0.00000000
Si      -2.73039948      -2.72533329       0.02948627       0.00000000
Si      -0.01379763       2.71248048       2.74871522       0.00000000
