10
Lattice="16.28999089631971 0.0 0.0 0.0 16.28999089631971 0.0 0.0 0.0 34.33025523377368" Properties=species:S:1:pos:R:3:initial_magmoms:R:1 pbc="T T T"
Si       1.35684297      -1.35757602       1.35735039       0.00000000
Si      -1.35782037       1.35694071       1.35721307       0.00000000
Si      -1.35835794      -1.35692442      -1.35982217       0.00000000
Si       1.35951453       1.35860229      -1.35735039       0.00000000
Si       0.00130320      -2.71391400       2.71360221       0.00000000
Si       0.00104256       2.71463076       2.71384252       0.00000000
Si      -2.71464216       0.00096111       2.71404850       0.00000000
Si       2.71430496       2.71482624       0.00003433       0.00000000
Si      -2.71593396       2.71453302      -0.00051495       0.00000000
Si       2.71612944       0.00146610       2.71442614       0.00000000
