10
Lattice="16.28999089631971 0.0 0.0 0.0 16.28999089631971 0.0 0.0 0.0 34.33025523377368" Properties=species:S:1:pos:R:3:initial_magmoms:R:1 pbc="T T T"
Si      -1.59246153       0.04935870       1.91738016       0.00000000
Si       1.39527108      -1.68998976       1.21536037       0.00000000
Si      -1.28014965      -0.12631266      -2.33246750       0.00000000
Si       2.55621051       1.31525460      -0.45913309       0.00000000
Si      -0.21030390       3.22670691      -0.51213903       0.00000000
Si       1.45560924       2.14646814      -2.35275670       0.00000000
Si      -2.25849447      -2.24394750       1.65746565       0.00000000
Si      -2.61017928       2.69083107      -0.18459389       0.00000000
Si       2.86523181      -2.50655859      -0.47976559       0.00000000
Si       0.29973600       0.70330446      -3.83771272       0.00000000
