10
Lattice="16.28999089631971 0.0 0.0 0.0 16.28999089631971 0.0 0.0 0.0 34.33025523377368" Properties=species:S:1:pos:R:3:initial_magmoms:R:1 pbc="T T T"
Si      -1.10340315       1.89156222       0.82492216       0.00000000
Si      -1.02201831      -0.52981596      -2.04797252       0.00000000
Si       2.33613261       0.36786078       0.00683172       0.00000000
Si      -0.01967832      -1.56309066       1.79279559       0.00000000
Si      -0.35021871       1.68829560       3.00812164       0.00000000
Si       3.28359159      -1.60884927      -0.84342618       0.00000000
Si       3.00780189       0.21479994       2.25749019       0.00000000
Si      -2.97626445       0.82026666      -2.29017261       0.00000000
Si      -1.13427270      -0.59220666       3.63255500       0.00000000
Si       2.92394097       2.56093461      -0.65093633       0.00000000
