10
Lattice="16.28999089631971 0.0 0.0 0.0 16.28999089631971 0.0 0.0 0.0 34.33025523377368" Properties=species:S:1:pos:R:3:initial_magmoms:R:1 pbc="T T T"
Si       1.23657390       1.24265007       1.53872894       0.00000000
Si      -0.99106731       1.53297045      -1.60878532       0.00000000
Si      -1.42415325      -1.37024964       1.44943590       0.00000000
Si       1.46132703      -1.01788065      -1.70048148       0.00000000
Si      -0.31923513      -1.96550253      -2.82469498       0.00000000
Si      -1.82263923      -0.14638194      -3.08550207       0.00000000
Si       2.73028545      -2.50318656      -0.17038115       0.00000000
Si      -2.56956831       2.67454107      -0.17408882       0.00000000
Si       2.95129188       2.22226551       0.39549407       0.00000000
Si       2.50370784      -0.21273111       2.82701712       0.00000000
