10
Lattice="16.28999089631971 0.0 0.0 0.0 16.28999089631971 0.0 0.0 0.0 34.33025523377368" Properties=species:S:1:pos:R:3:initial_magmoms:R:1 pbc="T T T"
Si      -1.34733929       1.34825814       1.35985650       0.00000000
Si       1.36807004       1.34094393      -1.36266815       0.00000000
Si       1.36868906      -1.36668213       1.35388303       0.00000000
Si      -1.36106601      -1.36901160      -1.39657616       0.00000000
Si       2.12967641      -0.61910145      -2.50444845       0.00000000
Si       0.37687241      -2.46193865      -2.70182349       0.00000000
Si      -2.70298734       2.69884575      -0.00051495       0.00000000
Si       0.00880474       2.70405855       2.71391118       0.00000000
Si      -2.70518649      -0.00884547       2.71442614       0.00000000
Si       2.73160820       2.69597871      -0.00411963       0.00000000
