10
Lattice="16.28999089631971 0.0 0.0 0.0 16.28999089631971 0.0 0.0 0.0 34.33025523377368" Properties=species:S:1:pos:R:3:initial_magmoms:R:1 pbc="T T T"
Si      -2.39987538      -0.53587584       0.32754515       0.00000000
Si      -0.70224561       1.57682313      -1.84181922       0.00000000
Si       1.66591314      -1.08023877      -1.84061766       0.00000000
Si       0.79874757       0.90329679       2.60728135       0.00000000
Si       0.21030390      -3.22670691       0.51213903       0.00000000
Si       2.76651441      -1.91145231       0.05300594       0.00000000
Si      -1.92925728       3.08852195      -0.48872579       0.00000000
Si      -3.15319014       1.67529618       0.94799620       0.00000000
Si      -2.83136490      -1.54160415      -1.93715439       0.00000000
Si       1.56059829       3.02454868       1.82678256       0.00000000
