10
Lattice="16.28999089631971 0.0 0.0 0.0 16.28999089631971 0.0 0.0 0.0 34.33025523377368" Properties=species:S:1:pos:R:3:initial_magmoms:R:1 pbc="T T T"
Si      -0.98741835      -1.61564220      -1.39013580       0.00000000
Si       2.09548044       0.30037131      -1.03049185       0.00000000
Si      -0.63982233       2.24015097       0.35947230       0.00000000
Si       0.01813077      -1.11703788       2.12188560       0.00000000
Si       1.71126450       1.95240441      -2.64487300       0.00000000
Si       3.37160646       1.38290697       0.71221587       0.00000000
Si       0.82080423       3.48367256      -1.12713157       0.00000000
Si      -1.05885000      -0.60981615      -3.55308041       0.00000000
Si       0.72417195      -3.09641949      -2.01165109       0.00000000
Si       1.59544260      -3.02172984       1.64146774       0.00000000
