10
Lattice="16.28999089631971 0.0 0.0 0.0 16.28999089631971 0.0 0.0 0.0 34.33025523377368" Properties=species:S:1:pos:R:3:initial_magmoms:R:1 pbc="T T T"
Si       0.86784975      -1.33885881       1.67354153       0.00000000
Si      -1.12744719      -1.22541525      -1.69502297       0.00000000
Si       2.20213107       0.15762204      -0.92681442       0.00000000
Si      -1.76886594       1.44171387       1.01682840       0.00000000
Si       1.86502581       0.37424646       2.79631899       0.00000000
Si      -2.12441148       2.72584710      -1.03546974       0.00000000
Si      -3.07450944      -2.02815387      -0.33073786       0.00000000
Si      -0.84686823      -2.31847425       2.81677640       0.00000000
Si       3.38305833       1.10938158       1.16283506       0.00000000
Si       2.60894124      -2.40785748      -1.25645371       0.00000000
