10
Lattice="16.28999089631971 0.0 0.0 0.0 16.28999089631971 0.0 0.0 0.0 34.33025523377368" Properties=species:S:1:pos:R:3:initial_magmoms:R:1 pbc="T T T"
Si       0.60209469       1.94117016      -1.14388646       0.00000000
Si      -1.16419743       1.49686041       1.42710951       0.00000000
Si       1.56291147      -1.19625876       1.43487502       0.00000000
Si      -0.89306667      -1.76504009      -1.49336835       0.00000000
Si      -2.41109919      -2.50017521       0.14011558       0.00000000
Si       1.11757545      -3.15871475      -1.22688745       0.00000000
Si      -2.50398477       0.14663769       2.80575840       0.00000000
Si       2.62464480       2.72781426      -0.07569482       0.00000000
Si       0.21111840      -2.57302409       2.80177609       0.00000000
Si      -2.49122970       2.92612872      -0.00118439       0.00000000
