10
Lattice="16.28999089631971 0.0 0.0 0.0 16.28999089631971 0.0 0.0 0.0 34.33025523377368" Properties=species:S:1:pos:R:3:initial_magmoms:R:1 pbc="T T T"
Si      -1.33978734      -1.35022271       1.37864889       0.00000000
Si       1.37539728       1.36376622       1.36951704       0.00000000
Si       1.16419743      -1.49686041      -1.42710951       0.00000000
Si      -1.32703227       1.42926831      -1.42829390       0.00000000
Si       1.76629212       0.44430975      -2.57099597       0.00000000
Si       0.49511826       2.44418418      -2.60900507       0.00000000
Si      -2.69861769      -2.68920926       0.00615542       0.00000000
Si       2.72710890      -2.69311916       0.00776551       0.00000000
Si      -2.68472232       2.74025493       0.00819120       0.00000000
Si      -2.69547372       0.00247608       2.73030046       0.00000000
