10
Lattice="16.28999089631971 0.0 0.0 0.0 16.28999089631971 0.0 0.0 0.0 34.33025523377368" Properties=species:S:1:pos:R:3:initial_magmoms:R:1 pbc="T T T"
Si      -1.35562122      -1.35645201       1.35755637       0.00000000
Si       1.35671265      -1.35643572      -1.35755637       0.00000000
Si      -1.35687555       1.35708732      -1.35783101       0.00000000
Si       1.35826020       1.35632169       1.35834597       0.00000000
Si      -2.71467963       0.00169416      -2.71353355       0.00000000
Si       2.71598283      -0.00076563       2.71270962       0.00000000
Si       2.71533123       0.00035838      -2.71432315       0.00000000
Si       2.71520091       2.71450044      -0.00030897       0.00000000
Si      -2.71507059      -2.71513575       0.00006866       0.00000000
Si      -2.71500543       2.71524978       0.00017165       0.00000000
