10
Lattice="16.28999089631971 0.0 0.0 0.0 16.28999089631971 0.0 0.0 0.0 34.33025523377368" Properties=species:S:1:pos:R:3:initial_magmoms:R:1 pbc="T T T"
Si      -1.10060127       0.83121354      -1.89362361       0.00000000
Si       1.51697367      -1.80428040       0.04981323       0.00000000
Si       1.15676919       1.96154406       0.65745909       0.00000000
Si      -2.55621051      -1.31525460       0.45913309       0.00000000
Si      -2.76651441       1.91145231      -0.05300594       0.00000000
Si      -1.16093943      -3.00524436       1.67449347       0.00000000
Si       2.27261790      -1.64392164       2.55856669       0.00000000
Si       0.30902130      -3.82181319      -0.02063249       0.00000000
Si       2.39199102      -2.31047586      -2.14845723       0.00000000
Si       0.34173162       2.04973812      -3.37559289       0.00000000
