10
Lattice="16.28999089631971 0.0 0.0 0.0 16.28999089631971 0.0 0.0 0.0 34.33025523377368" Properties=species:S:1:pos:R:3:initial_magmoms:R:1 pbc="T T T"
Si      -1.38147345       1.28686113      -1.38635947       0.00000000
Si       1.32206382      -1.44355464      -1.38601617       0.00000000
Si      -1.66594572      -0.90766251       1.46991936       0.00000000
Si       1.87970310       0.91321740       1.25137283       0.00000000
Si      -0.20326662      -0.59811993       3.37919757       0.00000000
Si      -2.55746484      -2.57393403      -0.01568894       0.00000000
Si      -2.76876243       2.61174312       0.02125044       0.00000000
Si      -0.02303406       2.63814921      -2.74824146       0.00000000
Si       3.55346802      -0.84313782       1.11947592       0.00000000
Si       2.69231346      -0.07980471      -2.74439647       0.00000000
