10
Lattice="16.28999089631971 0.0 0.0 0.0 16.28999089631971 0.0 0.0 0.0 34.33025523377368" Properties=species:S:1:pos:R:3:initial_magmoms:R:1 pbc="T T T"
Si      -1.20795237      -2.01753279      -0.07044572       0.00000000
Si      -1.51697367       1.80428040      -0.04981323       0.00000000
Si       0.87501735      -0.50619546      -2.19827046       0.00000000
Si       0.75564423       0.16035876       2.50875346       0.00000000
Si      -2.67791310      -1.20096396       1.62468024       0.00000000
Si       0.45854721      -3.77564733      -0.33386192       0.00000000
Si      -1.36003581      -0.54064881       3.53124636       0.00000000
Si      -0.36020448       3.76582446       0.60764586       0.00000000
Si      -1.00468575      -1.41941286      -3.44964329       0.00000000
Si       1.72441053       1.33454196      -3.40923656       0.00000000
