10
Lattice="16.28999089631971 0.0 0.0 0.0 16.28999089631971 0.0 0.0 0.0 34.33025523377368" Properties=species:S:1:pos:R:3:initial_magmoms:R:1 pbc="T T T"
Si       1.35793356       1.35632394       1.35745338       0.00000000
Si      -1.35615541      -1.35897212       1.35748771       0.00000000
Si      -1.35776812       1.35536772      -1.36019980       0.00000000
Si       1.35607487      -1.36037306      -1.36191632       0.00000000
Si      -2.71213501       2.71417038       0.00020598       0.00000000
Si      -2.71405723      -0.00132966       2.71507841       0.00000000
Si      -2.71488802      -2.71431641      -0.00089259       0.00000000
Si       0.00082557       2.71417038       2.71586801       0.00000000
Si       0.00051824      -2.71586396       2.71500975       0.00000000
Si       2.71599339      -0.00083268       2.71535306       0.00000000
