10
Lattice="16.28999089631971 0.0 0.0 0.0 16.28999089631971 0.0 0.0 0.0 34.33025523377368" Properties=species:S:1:pos:R:3:initial_magmoms:R:1 pbc="T T T"
Si       1.53587007      -1.00763424       1.40675165       0.00000000
Si      -1.15885431      -1.55576016      -1.32405002       0.00000000
Si       1.59440004       1.13629266      -1.34711997       0.00000000
Si      -1.29826413       1.56057453       1.59848624       0.00000000
Si       2.40189534       1.20562290       1.69265418       0.00000000
Si      -0.34381674      -1.64395422       2.70900195       0.00000000
Si       0.66223737       2.94113411       1.65540583       0.00000000
Si      -2.36830536      -0.11776041      -2.73416605       0.00000000
Si       0.34008633       2.60423247      -2.71380819       0.00000000
Si       2.86062174      -2.47254507       0.06498721       0.00000000
