10
Lattice="16.28999089631971 0.0 0.0 0.0 16.28999089631971 0.0 0.0 0.0 34.33025523377368" Properties=species:S:1:pos:R:3:initial_magmoms:R:1 pbc="T T T"
Si       1.10060127      -0.83121354       1.89362361       0.00000000
Si      -1.15587324      -1.44316368      -1.48495602       0.00000000
Si       1.44233289       1.21852458      -1.48196929       0.00000000
Si      -1.66591314       1.08023877       1.84061766       0.00000000
Si      -1.45560924      -2.14646814       2.35275670       0.00000000
Si      -2.73575889      -2.27278080       0.02028919       0.00000000
Si      -2.36815875       2.65706190      -0.00120156       0.00000000
Si       2.25737046       1.13033052       2.55108269       0.00000000
Si       2.60118720       2.77428474      -0.15791926       0.00000000
Si      -2.47277313      -0.05563035      -2.89421378       0.00000000
