10
Lattice="16.28999089631971 0.0 0.0 0.0 16.28999089631971 0.0 0.0 0.0 34.33025523377368" Properties=species:S:1:pos:R:3:initial_magmoms:R:1 pbc="T T T"
Si       1.35584928       1.35866745       1.35817432       0.00000000
Si       1.35436689      -1.35880266      -1.36040578       0.00000000
Si      -1.35974259      -1.35773240       1.35724740       0.00000000
Si      -1.35925389       1.35798327      -1.36311788       0.00000000
Si      -0.00754227      -2.69890211      -2.72486941       0.00000000
Si       2.71213501      -2.71417038      -0.00020598       0.00000000
Si       2.71296059       0.00000000       2.71566203       0.00000000
Si      -0.00161271       2.71423980       2.71483810       0.00000000
Si       2.71369648       2.71577106       0.00360468       0.00000000
Si      -0.00192222      -2.71550003       2.71487243       0.00000000
