10
Lattice="16.28999089631971 0.0 0.0 0.0 16.28999089631971 0.0 0.0 0.0 34.33025523377368" Properties=species:S:1:pos:R:3:initial_magmoms:R:1 pbc="T T T"
Si       0.32299812      -2.30119871       0.33962940       0.00000000
Si      -0.02386485       1.52334306       1.86931777       0.00000000
Si      -2.10756762      -0.14382441      -1.23640483       0.00000000
Si       1.72921349       0.49901157      -1.79842576       0.00000000
Si       2.37107533      -2.42105890       1.75956389       0.00000000
Si       0.94597775      -3.18731655      -1.89520280       0.00000000
Si      -2.34751932       1.89270252      -2.36786202       0.00000000
Si       2.25234892       2.15306559       2.23847121       0.00000000
Si      -3.91640922      -0.34715619       0.39740726       0.00000000
Si      -0.49651920       3.85123293       0.98057563       0.00000000
