10
Lattice="16.28999089631971 0.0 0.0 0.0 16.28999089631971 0.0 0.0 0.0 34.33025523377368" Properties=species:S:1:pos:R:3:initial_magmoms:R:1 pbc="T T T"
Si      -0.23995170       2.03652693      -1.13145718       0.00000000
Si      -0.17233191      -1.50183049      -1.81936722       0.00000000
Si      -1.80884160      -0.20333178       1.63381209       0.00000000
Si       2.10756762       0.14382441       1.23640483       0.00000000
Si      -2.41121322       2.60920188      -0.51897076       0.00000000
Si       2.43056574      -2.15737429       1.57603424       0.00000000
Si       2.13651495      -1.79314944      -2.54706605       0.00000000
Si      -2.10536847      -0.70529184      -3.07722848       0.00000000
Si      -2.64723903       2.02378815       1.84133860       0.00000000
Si      -1.16664093      -3.49579232      -1.04607779       0.00000000
