10
Lattice="16.28999089631971 0.0 0.0 0.0 16.28999089631971 0.0 0.0 0.0 34.33025523377368" Properties=species:S:1:pos:R:3:initial_magmoms:R:1 pbc="T T T"
Si       1.36019545       1.35461124      -1.37853217       0.00000000
Si      -1.35401053      -1.36187658      -1.37818887       0.00000000
Si      -1.25999517       1.48551768       1.39538833       0.00000000
Si       1.37135410      -1.19374749       1.57823138       0.00000000
Si       0.50472610       2.35067958       2.89733784       0.00000000
Si       2.71796695      -2.69661402       0.01527697       0.00000000
Si      -2.70017568      -2.73183300      -0.00772431       0.00000000
Si       2.71321027       2.72372058      -0.00731235       0.00000000
Si      -2.70483462       2.74098798      -0.01029908       0.00000000
Si      -2.71411992      -0.00140094      -2.73794238       0.00000000
