10
Lattice="16.28999089631971 0.0 0.0 0.0 16.28999089631971 0.0 0.0 0.0 34.33025523377368" Properties=species:S:1:pos:R:3:initial_magmoms:R:1 pbc="T T T"
Si       0.38143035       0.10033011       2.27558224       0.00000000
Si      -0.28505871      -2.27952486      -0.54101079       0.00000000
Si       1.86923093       0.31907223      -1.41210718       0.00000000
Si      -2.30299875       0.39203514      -0.58217279       0.00000000
Si      -2.43326988      -1.80973755       0.19345110       0.00000000
Si      -0.28369035      -1.65258792      -2.81340032       0.00000000
Si      -2.09443788      -0.08239482      -2.87255138       0.00000000
Si       1.34792975       2.13263793       2.74027683       0.00000000
Si       2.67982622       2.49127857      -0.82962541       0.00000000
Si       2.16919988      -1.19589777       2.96009358       0.00000000
