10
Lattice="16.28999089631971 0.0 0.0 0.0 16.28999089631971 0.0 0.0 0.0 34.33025523377368" Properties=species:S:1:pos:R:3:initial_magmoms:R:1 pbc="T T T"
Si      -1.12894587      -1.76634099      -1.02142865       0.00000000
Si       1.97978886       0.30758778      -1.24701289       0.00000000
Si      -1.47194811       1.74340467      -0.60943103       0.00000000
Si       0.72205425       0.19218942       2.32700899       0.00000000
Si       2.50332244       1.82032605       1.54424440       0.00000000
Si      -3.30020739      -1.19366604      -0.40894223       0.00000000
Si      -0.83491137      -1.60247988      -3.32914403       0.00000000
Si      -0.67308651       3.72856923       0.23196966       0.00000000
Si      -3.66709077       1.08507690      -0.15235776       0.00000000
Si       2.94628826       2.33989560      -0.78231829       0.00000000
