10
Lattice="16.28999089631971 0.0 0.0 0.0 16.28999089631971 0.0 0.0 0.0 34.33025523377368" Properties=species:S:1:pos:R:3:initial_magmoms:R:1 pbc="T T T"
Si      -1.37135410       1.19374749      -1.57823138       0.00000000
Si      -1.28974446      -1.46364021       1.44547620       0.00000000
Si       1.11835737       1.64729367       1.40094984       0.00000000
Si       1.34661285      -1.50286653      -1.56295440       0.00000000
Si      -2.63134928       2.67926517      -0.18284304       0.00000000
Si       2.73976623       2.72521926      -0.02605668       0.00000000
Si      -0.86662800       3.54442707       1.31910646       0.00000000
Si      -0.01115865       2.54835873      -2.95676354       0.00000000
Si       0.33878313      -2.68954416       2.82325311       0.00000000
Si      -2.70306111      -2.87738415      -0.02204004       0.00000000
