10
Lattice="16.28999089631971 0.0 0.0 0.0 16.28999089631971 0.0 0.0 0.0 34.33025523377368" Properties=species:S:1:pos:R:3:initial_magmoms:R:1 pbc="T T T"
Si       0.79886160       1.98516456       0.84140070       0.00000000
Si      -2.19514266      -0.65832777       0.45707327       0.00000000
Si       1.47194811      -1.74340467       0.60943103       0.00000000
Si      -0.60033537       0.37418130      -2.31605763       0.00000000
Si      -2.92838814       0.20862603      -1.59755932       0.00000000
Si      -1.82825928      -2.93707071       0.20048880       0.00000000
Si       2.71212210       2.14900938      -0.52885788       0.00000000
Si       0.34300224      -3.50974566      -0.41199762       0.00000000
Si       0.76730787      -1.14411186      -3.49533689       0.00000000
Si      -0.77468724       3.66648804       0.40296876       0.00000000
