10
Lattice="16.28999089631971 0.0 0.0 0.0 16.28999089631971 0.0 0.0 0.0 34.33025523377368" Properties=species:S:1:pos:R:3:initial_magmoms:R:1 pbc="T T T"
Si       1.12422081       1.84629231       0.79622205       0.00000000
Si      -0.49619340       0.73194228      -2.15721145       0.00000000
Si       1.70611427      -1.55251845       0.35597062       0.00000000
Si      -1.91326050      -0.16384482       1.37025857       0.00000000
Si      -2.71212210      -2.14900938       0.52885788       0.00000000
Si      -0.28729044       3.56840595       0.26207731       0.00000000
Si       1.26314845      -2.07208800       2.68253331       0.00000000
Si       0.73961487      -3.58482627      -0.10872398       0.00000000
Si      -0.87522912      -0.43070760       3.60299663       0.00000000
Si      -0.77802669       3.08298024      -2.00907632       0.00000000
