10
Lattice="16.28999089631971 0.0 0.0 0.0 16.28999089631971 0.0 0.0 0.0 34.33025523377368" Properties=species:S:1:pos:R:3:initial_magmoms:R:1 pbc="T T T"
Si      -0.79886160      -1.98516456      -0.84140070       0.00000000
Si      -1.57354884       1.68132348      -0.43843193       0.00000000
Si       1.91326050       0.16384482      -1.37025857       0.00000000
Si       1.03803138      -0.26686278       2.23273806       0.00000000
Si      -0.34979517       3.62485080       0.12794893       0.00000000
Si       3.03748131       2.01013713      -0.57403652       0.00000000
Si       0.67308651      -3.72856923      -0.23196966       0.00000000
Si      -1.39919697      -1.61098326      -3.15745833       0.00000000
Si      -3.26407617       1.60865379       1.35913556       0.00000000
Si       1.41706710       0.89578710      -3.52747003       0.00000000
