10
Lattice="16.28999089631971 0.0 0.0 0.0 16.28999089631971 0.0 0.0 0.0 34.33025523377368" Properties=species:S:1:pos:R:3:initial_magmoms:R:1 pbc="T T T"
Si       1.64548794       1.01975400      -1.34461386       0.00000000
Si      -1.32475167       1.46491083       1.34176445       0.00000000
Si      -1.11982347      -1.60269165      -1.37286767       0.00000000
Si       0.20276163       2.34562968      -2.78679436       0.00000000
Si      -2.86062174       2.47254507      -0.06498721       0.00000000
Si      -2.52586224      -0.35792388      -2.79293948       0.00000000
Si       2.88156321       2.68550424      -0.15678636       0.00000000
Si       0.97653663      -0.36219186       3.81381885       0.00000000
Si      -1.96921665      -3.44342907      -0.16190157       0.00000000
Si      -0.45872640       3.67816797       1.62766697       0.00000000
