10
Lattice="16.28999089631971 0.0 0.0 0.0 16.28999089631971 0.0 0.0 0.0 34.33025523377368" Properties=species:S:1:pos:R:3:initial_magmoms:R:1 pbc="T T T"
Si      -1.04487318       0.18099819      -2.08446560       0.00000000
Si       1.54667590      -1.76182866       0.15434891       0.00000000
Si       1.41921479       1.88715482      -0.09094090       0.00000000
Si      -1.74736314      -0.37369260       1.59505321       0.00000000
Si       2.50365475       1.32038173      -2.02246513       0.00000000
Si       3.09259853      -0.99566109      -1.52138044       0.00000000
Si      -1.91089845      -2.03225895      -2.37036813       0.00000000
Si      -0.03345966       3.68583146      -0.35494071       0.00000000
Si      -2.29146543       2.94279569      -0.11476611       0.00000000
Si      -2.79616221       1.74576413       1.89767458       0.00000000
