10
Lattice="16.28999089631971 0.0 0.0 0.0 16.28999089631971 0.0 0.0 0.0 34.33025523377368" Properties=species:S:1:pos:R:3:initial_magmoms:R:1 pbc="T T T"
Si       0.14999101      -2.36793069       0.19774238       0.00000000
Si      -2.09805426       1.06332975      -0.39589672       0.00000000
Si       0.02360037       0.63674352       2.37407580       0.00000000
Si       1.56259611       0.36619920      -1.86454586       0.00000000
Si      -1.99088235      -3.07027404      -0.40571518       0.00000000
Si       1.78705277      -0.66357315       3.16384376       0.00000000
Si       0.67829835      -2.68253946       2.50089183       0.00000000
Si       3.43825604       0.05678694       1.64400818       0.00000000
Si       2.87478494      -1.61903052      -1.94079340       0.00000000
Si      -0.37385550       2.90887991       2.52121535       0.00000000
