10
Lattice="16.28999089631971 0.0 0.0 0.0 16.28999089631971 0.0 0.0 0.0 34.33025523377368" Properties=species:S:1:pos:R:3:initial_magmoms:R:1 pbc="T T T"
Si      -1.35885804       1.35565380      -1.35916989       0.00000000
Si       1.35835794       1.35692442       1.35982217       0.00000000
Si      -1.35799467      -1.35917244       1.35982217       0.00000000
Si       1.36480878      -1.36725228      -1.35820865       0.00000000
Si      -2.71355021       2.71526607       0.00236879       0.00000000
Si      -2.71413870      -2.71497285       0.00576749       0.00000000
Si       2.71552671      -2.71420722       0.00346736       0.00000000
Si       0.00053757       2.71386513       2.71703524       0.00000000
Si      -2.71426457      -0.00115659       2.71724122       0.00000000
Si       2.71520091      -0.00065160       2.71717256       0.00000000
