10
Lattice="16.28999089631971 0.0 0.0 0.0 16.28999089631971 0.0 0.0 0.0 34.33025523377368" Properties=species:S:1:pos:R:3:initial_magmoms:R:1 pbc="T T T"
Si       1.33493292       1.85417667      -0.46033465       0.00000000
Si      -0.75850964      -0.16413804      -2.24622986       0.00000000
Si       1.38337938      -1.74983922       0.94545576       0.00000000
Si      -1.38986101       1.10527650       1.67820113       0.00000000
Si       2.41456896       1.82804751       1.57713281       0.00000000
Si      -0.77243270      -3.08066706       1.34148980       0.00000000
Si       2.36858229      -0.29830248       2.67913462       0.00000000
Si      -2.92505588      -1.92961566       0.83206286       0.00000000
Si      -3.53073437       0.40293315       1.07474357       0.00000000
Si       2.75388966       1.06070706      -2.28378718       0.00000000
