10
Lattice="16.28999089631971 0.0 0.0 0.0 16.28999089631971 0.0 0.0 0.0 34.33025523377368" Properties=species:S:1:pos:R:3:initial_magmoms:R:1 pbc="T T T"
Si      -1.61358152       1.67979222      -0.33561276       0.00000000
Si       0.73174680       0.02805138       2.25683791       0.00000000
Si       1.61655444       0.59082201      -1.63782873       0.00000000
Si      -0.81059529      -2.17220634      -0.58248177       0.00000000
Si       0.63135153      -0.86071473      -3.37150759       0.00000000
Si      -0.50482710       3.69875853       0.32733917       0.00000000
Si      -2.67982622      -2.49127857       0.82962541       0.00000000
Si       2.48723865      -1.62210933       2.36741572       0.00000000
Si      -1.33189646      -0.35864064       3.56990225       0.00000000
Si       3.84385356       0.53735823      -0.67802292       0.00000000
