10
Lattice="16.28999089631971 0.0 0.0 0.0 16.28999089631971 0.0 0.0 0.0 34.33025523377368" Properties=species:S:1:pos:R:3:initial_magmoms:R:1 pbc="T T T"
Si       0.84450618       2.05778538       0.80916457       0.00000000
Si      -0.73174680      -0.02805138      -2.25683791       0.00000000
Si       1.75549185      -1.65016071       0.11057781       0.00000000
Si      -2.06364326      -0.38669202       1.31306434       0.00000000
Si       0.82787409       1.31098662       3.13548695       0.00000000
Si       0.52277868      -3.67414434      -0.05575237       0.00000000
Si      -0.81695979       3.64812921       0.43479293       0.00000000
Si      -2.34532831       1.65174084      -2.59245067       0.00000000
Si      -1.54234209      -2.20025772      -2.83931968       0.00000000
Si      -3.03014267      -2.41899984       0.84836974       0.00000000
