10
Lattice="16.28999089631971 0.0 0.0 0.0 16.28999089631971 0.0 0.0 0.0 34.33025523377368" Properties=species:S:1:pos:R:3:initial_magmoms:R:1 pbc="T T T"
Si       1.35761349       1.35752042      -1.35793400       0.00000000
Si      -1.35786166      -1.35751086      -1.35827731       0.00000000
Si       1.35761349      -1.35856971       1.35965052       0.00000000
Si      -1.36148792       1.35928647       1.35824298       0.00000000
Si      -2.71404662       2.71549969      -0.00127022       0.00000000
Si      -2.71453532      -0.00061902      -2.71579935       0.00000000
Si      -0.00044635       2.71467704      -2.71583368       0.00000000
Si      -2.71495886      -2.71564074      -0.00202549       0.00000000
Si       2.71553160       2.71562838      -0.00154486       0.00000000
Si       2.71611804       0.00006516      -2.71507841       0.00000000
