10
Lattice="16.28999089631971 0.0 0.0 0.0 16.28999089631971 0.0 0.0 0.0 34.433804113860816" Properties=species:S:1:pos:R:3:initial_magmoms:R:1 pbc="T T T"
Si       1.34793234      -1.34703543       1.35380020       0.00000000
Si       1.35485559       1.35854527      -1.35610727       0.00000000
Si      -1.35892809      -1.35542906      -1.35593510       0.00000000
Si      -1.36001952       1.35874075       1.36592090       0.00000000
Si      -0.00575037      -2.69675967       2.72047865       0.00000000
Si       2.70456354      -0.01328124       2.71903243       0.00000000
Si       2.71208952      -2.71399449       0.00430423       0.00000000
Si      -0.00218286      -2.71360353      -2.71314424       0.00000000
Si      -2.71610989      -2.71101342       0.00285801       0.00000000
Si       2.71357191       0.00124944      -2.71403952       0.00000000
