10
Lattice="16.28999089631971 0.0 0.0 0.0 16.28999089631971 0.0 0.0 0.0 34.433804113860816" Properties=species:S:1:pos:R:3:initial_magmoms:R:1 pbc="T T T"
Si      -1.28692629       1.40155902      -1.34256444       0.00000000
Si       1.32947577       1.35829278       1.37899198       0.00000000
Si      -1.38494322      -1.35191525       1.37585851       0.00000000
Si       1.59734853      -1.23172437      -1.56463506       0.00000000
Si      -2.36038842      -0.30398769      -2.65059830       0.00000000
Si       2.67255369      -2.69277929       0.01712738       0.00000000
Si       2.70036072       2.71696023      -0.00045797       0.00000000
Si       2.68548795       0.01029528       2.73923131       0.00000000
Si      -0.02964780      -2.70724598       2.73785396       0.00000000
Si      -0.02832831       2.72648988       2.73609783       0.00000000
