10
Lattice="16.28999089631971 0.0 0.0 0.0 16.28999089631971 0.0 0.0 0.0 34.433804113860816" Properties=species:S:1:pos:R:3:initial_magmoms:R:1 pbc="T T T"
Si       1.35786924       1.35835468      -1.35493652       0.00000000
Si       1.35710361      -1.35707888       1.35834546       0.00000000
Si      -1.35726651      -1.35918658      -1.35631387       0.00000000
Si      -1.35871632       1.35729583       1.35793226       0.00000000
Si       0.00185706       2.70635218      -2.71517584       0.00000000
Si      -0.00384444      -2.70993339      -2.71169802       0.00000000
Si       2.71013472       0.00108980      -2.71228340       0.00000000
Si      -2.71357191      -0.00124944       2.71403952       0.00000000
Si       2.71433754      -2.71408734       0.00034434       0.00000000
Si       2.71513575       2.71436686       0.00099858       0.00000000
