10
Lattice="16.28999089631971 0.0 0.0 0.0 16.28999089631971 0.0 0.0 0.0 34.433804113860816" Properties=species:S:1:pos:R:3:initial_magmoms:R:1 pbc="T T T"
Si       1.76417442      -1.55382721      -0.17258232       0.00000000
Si      -1.14487749      -0.22571913       2.06451431       0.00000000
Si      -1.38636045      -0.65212684      -1.88673248       0.00000000
Si       0.49482504       2.41157323      -0.48389852       0.00000000
Si      -2.89313658       0.99549167       1.00860112       0.00000000
Si      -1.87300791       2.75379355      -0.23483868       0.00000000
Si      -3.36983085      -0.87046171      -0.41220730       0.00000000
Si       3.59510526      -0.13319356       0.26438290       0.00000000
Si      -2.14260741      -2.41359712       1.82017190       0.00000000
Si       1.74819393       3.22103962       1.54938432       0.00000000
