10
Lattice="16.28999089631971 0.0 0.0 0.0 16.28999089631971 0.0 0.0 0.0 34.433804113860816" Properties=species:S:1:pos:R:3:initial_magmoms:R:1 pbc="T T T"
Si      -1.69961715      -1.56503473      -0.31314119       0.00000000
Si       0.71195445       0.96663394      -2.00287777       0.00000000
Si       1.63466892      -0.24314780       1.67293287       0.00000000
Si      -1.31230611       1.82767447       0.78853455       0.00000000
Si      -2.84736168      -0.65020883      -2.15927620       0.00000000
Si      -2.47146993       0.75712988       2.55375008       0.00000000
Si      -1.31026986       0.80803124      -3.29659095       0.00000000
Si       2.31518367       1.95294457       2.04774504       0.00000000
Si       0.33611157       3.27785914       1.72138126       0.00000000
Si      -2.92493466      -1.47648229       1.79152296       0.00000000
