10
Lattice="16.28999089631971 0.0 0.0 0.0 16.28999089631971 0.0 0.0 0.0 34.433804113860816" Properties=species:S:1:pos:R:3:initial_magmoms:R:1 pbc="T T T"
Si      -1.42506062       1.24683660      -1.40338490       0.00000000
Si      -1.79969804      -0.75471570       1.35844877       0.00000000
Si       1.26863653      -1.48691210      -1.39140193       0.00000000
Si       1.88496053       0.71286669       1.41550561       0.00000000
Si       0.77155044      -2.31795134       2.77144071       0.00000000
Si      -0.07245530       2.58949098      -2.76000868       0.00000000
Si       2.69682155       2.65442292       0.11542218       0.00000000
Si      -2.92080842       2.44040490      -0.04104512       0.00000000
Si       2.64153329      -0.12570993      -2.74947193       0.00000000
Si      -0.95584346      -0.98580564       3.59120674       0.00000000
