10
Lattice="16.28999089631971 0.0 0.0 0.0 16.28999089631971 0.0 0.0 0.0 34.433804113860816" Properties=species:S:1:pos:R:3:initial_magmoms:R:1 pbc="T T T"
Si      -1.58281785      -0.49314717      -1.55799277       0.00000000
Si       1.61300322      -1.59870060      -0.56023831       0.00000000
Si      -1.09186983       1.41727887       1.51288446       0.00000000
Si       0.58411053       2.49235371       0.10547080       0.00000000
Si       0.77794524       2.29035771      -2.27283894       0.00000000
Si       2.43804285      -1.66110759       1.68112812       0.00000000
Si      -1.14298785       1.22890131      -3.08465076       0.00000000
Si      -3.59824923      -0.05238864      -0.32991046       0.00000000
Si       0.41532984      -2.39663856       2.83700068       0.00000000
Si       2.59654455      -1.14733728      -2.66810480       0.00000000
