10
Lattice="16.28999089631971 0.0 0.0 0.0 16.28999089631971 0.0 0.0 0.0 34.433804113860816" Properties=species:S:1:pos:R:3:initial_magmoms:R:1 pbc="T T T"
Si      -1.35309627       1.35255870       1.35917188       0.00000000
Si       1.34856765       1.36117611      -1.36133088       0.00000000
Si       1.36418976      -1.36052451       1.35676151       0.00000000
Si      -1.35301482      -1.35848826      -1.37828953       0.00000000
Si       2.61671157      -0.07556931      -2.69652992       0.00000000
Si       0.10559178      -2.68545537      -2.72190077       0.00000000
Si      -2.70712433       2.71114470      -0.00165282       0.00000000
Si      -2.71015264      -0.00498474       2.71596782       0.00000000
Si       0.00434943       2.71026504       2.71589895       0.00000000
Si      -2.70961018      -2.72117934      -0.00561271       0.00000000
