10
Lattice="16.28999089631971 0.0 0.0 0.0 16.28999089631971 0.0 0.0 0.0 34.433804113860816" Properties=species:S:1:pos:R:3:initial_magmoms:R:1 pbc="T T T"
Si       1.34607528       1.36466217       1.38010420       0.00000000
Si      -1.47616722       1.29448485      -1.31673563       0.00000000
Si      -1.37088495      -1.35866745       1.37944995       0.00000000
Si       1.54764774      -1.24411617      -1.50096003       0.00000000
Si       2.68864821      -2.68345170       0.03649641       0.00000000
Si       2.68392411       2.71125873      -0.00459003       0.00000000
Si      -2.70036072      -2.71696023       0.00045797       0.00000000
Si       2.69822673       0.00718389       2.73734778       0.00000000
Si      -0.01487277      -2.70666495       2.73968928       0.00000000
Si      -0.01552437       2.72152143       2.73800202       0.00000000
