10
Lattice="16.28999089631971 0.0 0.0 0.0 16.28999089631971 0.0 0.0 0.0 34.433804113860816" Properties=species:S:1:pos:R:3:initial_magmoms:R:1 pbc="T T T"
Si       1.35650088      -1.35759231       1.35679594       0.00000000
Si      -1.35806472      -1.35716877      -1.35789782       0.00000000
Si      -1.35799956       1.35783666       1.35758792       0.00000000
Si       1.35927018       1.35966114      -1.35920631       0.00000000
Si       2.71425609       0.00169416       2.71465933       0.00000000
Si       0.00164529      -2.71613758       2.71290321       0.00000000
Si       2.71521720      -2.71488814      -0.00113632       0.00000000
Si      -2.71482950      -2.71533937      -0.00048207       0.00000000
Si       0.00043983       2.71562445       2.71455603       0.00000000
Si       2.71505430       2.71518462       0.00000000       0.00000000
