10
Lattice="16.28999089631971 0.0 0.0 0.0 16.28999089631971 0.0 0.0 0.0 34.433804113860816" Properties=species:S:1:pos:R:3:initial_magmoms:R:1 pbc="T T T"
Si       1.35578412       1.35552348       1.35920631       0.00000000
Si      -1.35927018      -1.35966114       1.35920631       0.00000000
Si      -1.36418976       1.36052451      -1.35676151       0.00000000
Si       1.35780408      -1.36819710      -1.35710585       0.00000000
Si       2.71316466       2.71199178       0.00144622       0.00000000
Si       2.71336014      -0.00226431       2.71631216       0.00000000
Si       2.71381626      -2.71619460       0.00313348       0.00000000
Si      -2.71728603       2.71308321       0.00241037       0.00000000
Si      -0.00249237       2.71353933       2.71696640       0.00000000
Si      -0.00276930      -2.71725345       2.71600225       0.00000000
