10
Lattice="16.28999089631971 0.0 0.0 0.0 16.28999089631971 0.0 0.0 0.0 34.433804113860816" Properties=species:S:1:pos:R:3:initial_magmoms:R:1 pbc="T T T"
Si       0.05334975      -0.53952480       2.27311442       0.00000000
Si      -2.16422424      -0.22998222      -0.94927164       0.00000000
Si       0.91685007       2.17652319      -0.32529633       0.00000000
Si       1.75554072      -1.62157176      -0.43851474       0.00000000
Si       2.29203558       0.03846069       2.57051935       0.00000000
Si      -1.23028596      -1.21536432      -3.10179881       0.00000000
Si      -1.69732026       1.07702964      -2.94949801       0.00000000
Si       2.60102430       2.04998247       1.37666426       0.00000000
Si       1.68013431       0.38779974      -3.18161641       0.00000000
Si      -0.14579550      -2.87306730       2.40623558       0.00000000
