10
Lattice="16.28999089631971 0.0 0.0 0.0 16.28999089631971 0.0 0.0 0.0 34.433804113860816" Properties=species:S:1:pos:R:3:initial_magmoms:R:1 pbc="T T T"
Si      -1.24256862       1.43057151       1.35186846       0.00000000
Si       1.17099036       1.54127835      -1.37134010       0.00000000
Si       1.47786138      -1.30841280       1.32951058       0.00000000
Si      -1.78792524      -0.80141913      -1.36375415       0.00000000
Si      -2.60270217      -2.54583378       0.00154952       0.00000000
Si      -2.59807581       0.06286311       2.71190118       0.00000000
Si       0.12103470      -2.65469985       2.70718375       0.00000000
Si      -2.71086777       2.68687260      -0.05731166       0.00000000
Si       0.11556126       2.78073558       2.71148798       0.00000000
Si       2.76553701       2.73044835      -0.00825034       0.00000000
