10
Lattice="16.28999089631971 0.0 0.0 0.0 16.28999089631971 0.0 0.0 0.0 34.433804113860816" Properties=species:S:1:pos:R:3:initial_magmoms:R:1 pbc="T T T"
Si      -0.45511002      -0.55702026       2.31243784       0.00000000
Si       0.30817422      -2.34574371      -0.54388224       0.00000000
Si      -1.45411056      -0.25992324      -2.06527186       0.00000000
Si       1.44549315       1.98286767      -1.60578692       0.00000000
Si      -1.85795595       1.38152232       2.32139064       0.00000000
Si      -3.30414957       0.68634657       0.44140718       0.00000000
Si      -3.06928035      -1.65651381      -0.31176384       0.00000000
Si       0.31490199       0.57107853      -3.47051619       0.00000000
Si       3.36492756       0.85794543       1.40114671       0.00000000
Si      -3.26702466       1.48452399      -1.80154320       0.00000000
