10
Lattice="16.28999089631971 0.0 0.0 0.0 16.28999089631971 0.0 0.0 0.0 34.433804113860816" Properties=species:S:1:pos:R:3:initial_magmoms:R:1 pbc="T T T"
Si      -2.29190526      -0.21870954       0.46444341       0.00000000
Si       0.03712491       0.79817742      -2.24295039       0.00000000
Si       1.44619362       0.69517575       1.87998345       0.00000000
Si       0.23486922      -2.34286038      -0.75317102       0.00000000
Si       1.85003901      -0.94626981      -2.50667904       0.00000000
Si       3.30414957      -0.68634657      -0.44140718       0.00000000
Si      -2.04301035      -2.14356852       1.85222979       0.00000000
Si       2.84903955      -1.24336683       1.87103066       0.00000000
Si       0.76413132       3.07125144      -1.89802678       0.00000000
Si      -0.11574045       1.28868561       3.54000364       0.00000000
