10
Lattice="16.28999089631971 0.0 0.0 0.0 16.28999089631971 0.0 0.0 0.0 34.433804113860816" Properties=species:S:1:pos:R:3:initial_magmoms:R:1 pbc="T T T"
Si      -2.14940034       0.70257141      -0.47639195       0.00000000
Si       1.14808662      -1.28418957      -1.55441165       0.00000000
Si      -0.50552757      -1.10152980       2.04671203       0.00000000
Si       1.16559837       2.07798498       0.43018176       0.00000000
Si      -0.86446143       1.00198161       3.14143214       0.00000000
Si      -2.61592965       1.73201796       1.60602796       0.00000000
Si       3.38677245      -0.70620408      -1.25700672       0.00000000
Si       1.11558807       2.17474758       2.80690754       0.00000000
Si       1.24771626      -2.70930393       2.35971548       0.00000000
Si      -2.21206797       1.96125084      -2.41091858       0.00000000
