10
Lattice="16.28999089631971 0.0 0.0 0.0 16.28999089631971 0.0 0.0 0.0 34.433804113860816" Properties=species:S:1:pos:R:3:initial_magmoms:R:1 pbc="T T T"
Si      -1.02012867      -1.75830187       1.24343980       0.00000000
Si       2.36783295      -0.34222032      -0.24905984       0.00000000
Si      -0.63470727       2.06136918       1.07946593       0.00000000
Si       1.87300791      -2.75379355       0.23483868       0.00000000
Si      -2.70573316       2.20656195      -0.04076965       0.00000000
Si      -1.78395048       0.25070310      -3.25768073       0.00000000
Si      -0.06486678      -1.62465057      -3.35426760       0.00000000
Si       1.51047396       3.04153848      -1.67186543       0.00000000
Si       0.48664746      -3.40592039      -1.65189381       0.00000000
Si       0.72813042      -2.97951268       2.29935299       0.00000000
