10
Lattice="16.28999089631971 0.0 0.0 0.0 16.28999089631971 0.0 0.0 0.0 34.433804113860816" Properties=species:S:1:pos:R:3:initial_magmoms:R:1 pbc="T T T"
Si       1.35746199       1.35772263       1.35703698       0.00000000
Si      -1.35790182      -1.35808101       1.35765679       0.00000000
Si       1.35790182      -1.35731538      -1.36082470       0.00000000
Si      -1.36071999       1.36187658      -1.35500538       0.00000000
Si      -2.71414206       2.71262339       0.00037877       0.00000000
Si       2.71490769      -0.00125433       2.71476263       0.00000000
Si       0.00022806       2.71473109       2.71503810       0.00000000
Si      -2.71494027      -0.00071676       2.71493480       0.00000000
Si       2.71487511      -2.71546155       0.00030990       0.00000000
Si       0.00097740      -2.71544526       2.71517584       0.00000000
