10
Lattice="16.28999089631971 0.0 0.0 0.0 16.28999089631971 0.0 0.0 0.0 34.433804113860816" Properties=species:S:1:pos:R:3:initial_magmoms:R:1 pbc="T T T"
Si       1.35703845      -1.35736425      -1.35727802       0.00000000
Si      -1.35666378      -1.35762489       1.35810443       0.00000000
Si      -1.35769005       1.35767376      -1.35734688       0.00000000
Si       1.35658233       1.35728280       1.36010159       0.00000000
Si       0.00079821       2.71334015      -2.71455603       0.00000000
Si      -0.00501732      -2.71417464       2.71465933       0.00000000
Si      -2.71246419      -0.00490329       2.71648432       0.00000000
Si      -2.71614573      -0.00244350      -2.71335085       0.00000000
Si      -2.71484253      -2.71500543       0.00013774       0.00000000
Si       2.71494027       0.00071676      -2.71493480       0.00000000
