10
Lattice="16.28999089631971 0.0 0.0 0.0 16.28999089631971 0.0 0.0 0.0 34.433804113860816" Properties=species:S:1:pos:R:3:initial_magmoms:R:1 pbc="T T T"
Si      -1.35658233      -1.35728280      -1.36010159       0.00000000
Si       1.35858600       1.35816505      -1.35999829       0.00000000
Si      -1.36415718       1.36695906       1.34949597       0.00000000
Si       1.36443411      -1.36588392       1.35052899       0.00000000
Si      -0.00752598       2.70071325       2.71472820       0.00000000
Si       0.01360215      -2.69943219       2.72533382       0.00000000
Si      -2.71208952       2.71399449      -0.00430423       0.00000000
Si       2.71510317      -2.71251306      -0.00389102       0.00000000
Si      -2.71324611      -2.71490769      -0.00199716       0.00000000
Si       2.71634121       2.71438545      -0.00144622       0.00000000
