10
Lattice="16.28999089631971 0.0 0.0 0.0 16.28999089631971 0.0 0.0 0.0 34.433804113860816" Properties=species:S:1:pos:R:3:initial_magmoms:R:1 pbc="T T T"
Si       1.85220558      -0.79412121       1.17880751       0.00000000
Si       1.35368271       1.34972424      -1.36667845       0.00000000
Si      -1.35120663      -1.37942091      -1.35979168       0.00000000
Si      -1.42649901       1.31427720       1.41550561       0.00000000
Si       1.24581033      -0.89857269       3.40368014       0.00000000
Si       2.71031391       2.68347843      -0.00144622       0.00000000
Si       0.00575037       2.69675967      -2.72047865       0.00000000
Si      -2.72716592       2.69429825       0.00351225       0.00000000
Si      -2.71035952      -0.01425375      -2.71762064       0.00000000
Si      -2.69427641      -2.73740418       0.00902166       0.00000000
