10
Lattice="16.28999089631971 0.0 0.0 0.0 16.28999089631971 0.0 0.0 0.0 34.433804113860816" Properties=species:S:1:pos:R:3:initial_magmoms:R:1 pbc="T T T"
Si      -2.29744386      -0.19714158      -0.59126318       0.00000000
Si      -0.23296329       1.03718430       2.13541356       0.00000000
Si       1.68806754      -1.97187192      -0.74043050       0.00000000
Si       0.24246036       1.74692331      -2.63831955       0.00000000
Si      -1.69104861      -0.09269010      -2.81613581       0.00000000
Si       0.02073717      -0.88457958       3.49809768       0.00000000
Si       1.59796755       2.45781795       2.57237877       0.00000000
Si      -3.38349816       1.93888467       0.42126339       0.00000000
Si      -1.99713771       2.59101151       2.30799588       0.00000000
Si      -3.02445027      -2.47021560      -0.93618679       0.00000000
