10
Lattice="16.28999089631971 0.0 0.0 0.0 16.28999089631971 0.0 0.0 0.0 34.433804113860816" Properties=species:S:1:pos:R:3:initial_magmoms:R:1 pbc="T T T"
Si      -1.43998713       1.28473203       1.30080654       0.00000000
Si      -1.35975888      -1.33473974      -1.36574874       0.00000000
Si       1.35711990       1.37703117      -1.36182328       0.00000000
Si       1.39621590      -1.19296867       1.58602190       0.00000000
Si       0.39182337       2.13687822       2.64620489       0.00000000
Si       2.34237168       0.74968698       2.74874882       0.00000000
Si       2.70642060      -2.68983968       0.02796026       0.00000000
Si      -2.70278793      -2.70414230       0.01711361       0.00000000
Si      -0.00521280      -2.69524796      -2.72264798       0.00000000
Si       2.71063971       0.01898437      -2.72350882       0.00000000
