10
Lattice="16.28999089631971 0.0 0.0 0.0 16.28999089631971 0.0 0.0 0.0 34.433804113860816" Properties=species:S:1:pos:R:3:initial_magmoms:R:1 pbc="T T T"
Si       1.35817875      -1.35508269       1.35648604       0.00000000
Si      -1.35775521      -1.35622040      -1.35855207       0.00000000
Si      -1.35400851       1.35890366       1.36013602       0.00000000
Si       1.35707103       1.35851270      -1.35879310       0.00000000
Si       2.71272483      -2.71559091      -0.00041321       0.00000000
Si      -0.00052128      -2.71322886      -2.71655319       0.00000000
Si       2.71463076       0.00153940      -2.71552018       0.00000000
Si      -2.71634121      -2.71438545       0.00144622       0.00000000
Si       0.00027693       2.71522535      -2.71589895       0.00000000
Si      -2.71485882       0.00085848      -2.71689753       0.00000000
