10
Lattice="16.28999089631971 0.0 0.0 0.0 16.28999089631971 0.0 0.0 0.0 34.433804113860816" Properties=species:S:1:pos:R:3:initial_magmoms:R:1 pbc="T T T"
Si      -0.82503963       0.06240699      -2.24136643       0.00000000
Si       0.62794692       1.96903746       1.21908961       0.00000000
Si      -2.02271301      -0.73553097       1.15587256       0.00000000
Si       1.50135156      -1.94814228       0.15345678       0.00000000
Si       1.76894739       0.52970193       2.75654605       0.00000000
Si      -2.43804285       1.66110759      -1.68112812       0.00000000
Si       3.11266062      -0.76490998       1.38755021       0.00000000
Si      -2.44035603      -2.60736830      -0.42660064       0.00000000
Si      -0.94750785      -2.19658589       2.73763500       0.00000000
Si      -1.42728093      -2.22857693      -2.60567628       0.00000000
