10
Lattice="16.28999089631971 0.0 0.0 0.0 16.28999089631971 0.0 0.0 0.0 34.433804113860816" Properties=species:S:1:pos:R:3:initial_magmoms:R:1 pbc="T T T"
Si      -1.36635633      -1.33242426      -1.34219600       0.00000000
Si      -1.35677781       1.35821133       1.35865537       0.00000000
Si       1.35876519      -1.35571896       1.35982612       0.00000000
Si       1.37034738       1.37342619      -1.38806185       0.00000000
Si      -0.02264310      -2.62703617      -2.71119185       0.00000000
Si      -2.50735680       0.10691127      -2.87965244       0.00000000
Si      -2.70892926       2.71568961       0.00141179       0.00000000
Si      -2.71261080       0.00037467       2.71693196       0.00000000
Si      -2.71761183      -2.71290239       0.00364999       0.00000000
Si       0.00174303      -2.71331127       2.71731074       0.00000000
