10
Lattice="16.28999089631971 0.0 0.0 0.0 16.28999089631971 0.0 0.0 0.0 34.433804113860816" Properties=species:S:1:pos:R:3:initial_magmoms:R:1 pbc="T T T"
Si       1.35215145      -1.35747828       1.35724358       0.00000000
Si       1.33784883       1.34659656      -1.38469423       0.00000000
Si      -1.36159965       1.35685926       1.35789782       0.00000000
Si      -1.34607528      -1.36466217      -1.38010420       0.00000000
Si       2.70892926      -2.71568961      -0.00141179       0.00000000
Si       2.70959715       2.71557558      -0.00633582       0.00000000
Si       2.71099809       0.00052128       2.71562348       0.00000000
Si      -0.00407250       2.71508688       2.71565791       0.00000000
Si      -0.00368154      -2.71531494       2.71552018       0.00000000
Si      -2.71718829       2.71494027      -0.00148065       0.00000000
