10
Lattice="16.28999089631971 0.0 0.0 0.0 16.28999089631971 0.0 0.0 0.0 34.433804113860816" Properties=species:S:1:pos:R:3:initial_magmoms:R:1 pbc="T T T"
Si       1.35325917      -1.35959598       1.35414454       0.00000000
Si       1.35627282       1.35834165      -1.35645160       0.00000000
Si      -1.35832536      -1.35698958      -1.35710585       0.00000000
Si      -1.35783666       1.35689184       1.36147894       0.00000000
Si       2.70625770      -0.01630629       2.70360607       0.00000000
Si      -0.00630423      -2.69589726       2.72543712       0.00000000
Si       2.71352304      -2.71252935       0.00041321       0.00000000
Si       2.71293660       2.71538010      -0.00086085       0.00000000
Si       2.71407690       0.00092853      -2.71424613       0.00000000
Si      -0.00060273      -2.71490769      -2.71434943       0.00000000
