10
Lattice="16.28999089631971 0.0 0.0 0.0 16.28999089631971 0.0 0.0 0.0 34.433804113860816" Properties=species:S:1:pos:R:3:initial_magmoms:R:1 pbc="T T T"
Si       1.28337507      -1.46984670       1.29915372       0.00000000
Si       1.35956340       1.33630128      -1.37129258       0.00000000
Si      -1.34858394      -1.37533212      -1.36375157       0.00000000
Si      -1.37150397       1.28726838       1.49377369       0.00000000
Si      -0.49177881      -2.49157668       2.63639125       0.00000000
Si      -2.21658030      -0.56018052       2.86217383       0.00000000
Si       2.71256193       2.67959097      -0.02183104       0.00000000
Si      -2.71145421       2.69091252       0.01656267       0.00000000
Si       0.09482409       2.72989449       2.68635473       0.00000000
Si       0.00630423       2.69589726      -2.72543712       0.00000000
