10
Lattice="16.28999089631971 0.0 0.0 0.0 16.28999089631971 0.0 0.0 0.0 34.433804113860816" Properties=species:S:1:pos:R:3:initial_magmoms:R:1 pbc="T T T"
Si      -1.05308334       0.27044658      -2.08069821       0.00000000
Si       1.94535180       1.31676957       0.30591009       0.00000000
Si      -1.29293730      -0.38309193       1.95615107       0.00000000
Si       1.45038015      -1.87269840      -0.21297320       0.00000000
Si       3.41642025      -0.51906456       0.04297341       0.00000000
Si       0.26503830      -1.55193201       3.32641064       0.00000000
Si      -0.12712716      -3.68189838       0.07103698       0.00000000
Si       0.20474901      -1.05251319      -3.52836501       0.00000000
Si       1.03534353      -2.81015532      -2.27239130       0.00000000
Si       1.98389394       1.99456389       2.52262190       0.00000000
