10
Lattice="16.28999089631971 0.0 0.0 0.0 16.28999089631971 0.0 0.0 0.0 34.433804113860816" Properties=species:S:1:pos:R:3:initial_magmoms:R:1 pbc="T T T"
Si       1.40514282       0.88723974      -1.63274860       0.00000000
Si      -1.45749888      -1.55219984      -1.05753158       0.00000000
Si       0.81537966      -0.10790007       2.27862383       0.00000000
Si      -1.89910612       1.58509845      -0.02358717       0.00000000
Si      -0.39811131       2.02031838       2.65072437       0.00000000
Si       1.56147795       2.99607309      -0.65830583       0.00000000
Si      -0.45395343       3.43683162       0.56977648       0.00000000
Si      -0.14778288       1.17423370      -3.35354449       0.00000000
Si      -2.21612255      -2.74456268       1.00154219       0.00000000
Si      -2.12134407       2.06014743      -2.36174708       0.00000000
