10
Lattice="16.28999089631971 0.0 0.0 0.0 16.28999089631971 0.0 0.0 0.0 34.433804113860816" Properties=species:S:1:pos:R:3:initial_magmoms:R:1 pbc="T T T"
Si      -1.80511119      -0.61195014      -1.43141404       0.00000000
Si       2.07510165      -1.11242781      -0.52811155       0.00000000
Si       0.53349750       2.18575962      -1.00663839       0.00000000
Si       0.20259873      -0.48293334       2.79557882       0.00000000
Si       2.35470321       2.35201536       0.74318521       0.00000000
Si       3.39591114       0.10997379       1.09076022       0.00000000
Si      -1.49460750       3.37276305      -0.51161775       0.00000000
Si       0.71301330       1.57245741      -3.33639645       0.00000000
Si      -2.01145662      -2.95702596      -1.26158642       0.00000000
Si      -1.15769772       0.09568746      -3.62130190       0.00000000
