10
Lattice="16.28999089631971 0.0 0.0 0.0 16.28999089631971 0.0 0.0 0.0 34.433804113860816" Properties=species:S:1:pos:R:3:initial_magmoms:R:1 pbc="T T T"
Si      -2.38462794      -0.03145599       0.19833882       0.00000000
Si       0.70827291       0.69454044       2.19663689       0.00000000
Si       0.73534689      -2.29089528      -0.26056074       0.00000000
Si      -0.24876459       1.51005042      -2.41491290       0.00000000
Si      -1.55589048       3.06752103      -1.06249005       0.00000000
Si      -2.69361666      -2.04297777       1.39219391       0.00000000
Si      -1.43578431      -3.36593754      -0.05547289       0.00000000
Si      -0.99680139       2.14075035       2.84447485       0.00000000
Si       1.99244619       2.78765883      -1.65344333       0.00000000
Si      -3.00877929       1.49369526       1.83387656       0.00000000
