10
Lattice="16.28999089631971 0.0 0.0 0.0 16.28999089631971 0.0 0.0 0.0 34.433804113860816" Properties=species:S:1:pos:R:3:initial_magmoms:R:1 pbc="T T T"
Si      -1.30712589       1.55747061       1.35242285       0.00000000
Si       0.35245044       2.13444612      -1.13920861       0.00000000
Si       2.24121078       1.27760841       0.76146957       0.00000000
Si       0.24876459      -1.51005042       2.41491290       0.00000000
Si      -2.13586335      -1.54150641       2.61325172       0.00000000
Si       2.20261977      -2.25960219      -1.97722457       0.00000000
Si      -1.91943441       1.12492224      -3.00693362       0.00000000
Si      -3.36492756      -0.85794543      -1.40114671       0.00000000
Si       2.72135853       2.20884255      -1.74848068       0.00000000
Si      -0.30284739       3.99860856       0.95292163       0.00000000
