10
Lattice="16.28999089631971 0.0 0.0 0.0 16.28999089631971 0.0 0.0 0.0 34.433804113860816" Properties=species:S:1:pos:R:3:initial_magmoms:R:1 pbc="T T T"
Si       1.70507430      -1.44620991      -0.64783795       0.00000000
Si      -0.50764527       0.33469434       2.25734372       0.00000000
Si      -2.01197790      -0.64705509      -1.01059828       0.00000000
Si       0.35787501       2.30435082      -0.40005216       0.00000000
Si      -1.90773819       2.93441544      -0.17561250       0.00000000
Si       1.30161987      -3.13740513       0.93432736       0.00000000
Si       1.60546095       1.09757133       2.97439366       0.00000000
Si      -2.15223480       2.03336667       2.11792117       0.00000000
Si      -2.95849206       1.44021519      -1.62472552       0.00000000
Si       1.72387296       2.90903562       1.44467106       0.00000000
