10
Lattice="16.28999089631971 0.0 0.0 0.0 16.28999089631971 0.0 0.0 0.0 34.433804113860816" Properties=species:S:1:pos:R:3:initial_magmoms:R:1 pbc="T T T"
Si      -0.15605820      -1.74516399       1.52627922       0.00000000
Si       0.50764527      -0.33469434      -2.25734372       0.00000000
Si       2.11310622       0.76287699       0.71704994       0.00000000
Si      -1.64458953       1.69867233      -0.13942255       0.00000000
Si       0.86552028       1.96965648      -2.65739588       0.00000000
Si       1.84780728      -2.79430515       0.89369545       0.00000000
Si       2.23151823       2.57434128      -0.81267267       0.00000000
Si      -0.68057991       3.35525130       1.24402517       0.00000000
Si      -1.50433263      -0.98174943      -3.26794201       0.00000000
Si      -1.40009292       2.59972110      -2.43295622       0.00000000
