10
Lattice="16.28999089631971 0.0 0.0 0.0 16.28999089631971 0.0 0.0 0.0 34.433804113860816" Properties=species:S:1:pos:R:3:initial_magmoms:R:1 pbc="T T T"
Si       1.35892522      -1.35349484      -1.35803556       0.00000000
Si      -1.35780762      -1.35642704       1.35710585       0.00000000
Si       1.35770673       1.35786067       1.35669264       0.00000000
Si      -1.35687909       1.35891627      -1.36072140       0.00000000
Si       2.70196078      -0.01035176      -2.72508589       0.00000000
Si      -2.71386867      -2.71491530      -0.00096415       0.00000000
Si       0.00002509      -2.71454063       2.71452160       0.00000000
Si       2.71525342       0.00163341       2.71414282       0.00000000
Si      -2.71541622       0.00090647       2.71462490       0.00000000
Si       2.71354297      -2.71665833       0.00092971       0.00000000
