10
Lattice="16.28999089631971 0.0 0.0 0.0 16.28999089631971 0.0 0.0 0.0 34.433804113860816" Properties=species:S:1:pos:R:3:initial_magmoms:R:1 pbc="T T T"
Si      -2.03585904      -0.66194415      -1.03180952       0.00000000
Si      -0.07669332       2.12747400      -1.09575313       0.00000000
Si       2.02810500      -1.18700343      -0.49502064       0.00000000
Si       0.67189734       2.01769569       1.41054714       0.00000000
Si       0.05189994       1.31856147      -3.28088912       0.00000000
Si       2.19123306       2.74901895      -0.54828977       0.00000000
Si       1.49460750      -3.37276305       0.51161775       0.00000000
Si      -2.33544843      -2.89209402      -0.35470281       0.00000000
Si      -3.66951798       0.85765221      -0.26321215       0.00000000
Si      -1.78662204      -0.10937106      -3.35247704       0.00000000
