10
Lattice="16.28999089631971 0.0 0.0 0.0 16.28999089631971 0.0 0.0 0.0 34.433804113860816" Properties=species:S:1:pos:R:3:initial_magmoms:R:1 pbc="T T T"
Si       1.18415268      -1.42395777      -1.51667218       0.00000000
Si       1.46103381       1.23970158       1.59755723       0.00000000
Si      -1.52663364       1.28151801      -1.51395191       0.00000000
Si      -1.74464271      -1.36445040       1.71883316       0.00000000
Si       0.52724214      -0.35492652       3.58655817       0.00000000
Si       2.57237019       2.79269164       0.05495638       0.00000000
Si       2.65373874      -2.73365748      -0.12781835       0.00000000
Si       2.52815913      -0.06357987      -2.89677982       0.00000000
Si      -0.18360459       2.65092057      -2.89681426       0.00000000
Si      -3.19024989       2.35434483      -0.17905588       0.00000000
