10
Lattice="16.28999089631971 0.0 0.0 0.0 16.28999089631971 0.0 0.0 0.0 34.433804113860816" Properties=species:S:1:pos:R:3:initial_magmoms:R:1 pbc="T T T"
Si       2.24616294       0.22312413      -0.55552087       0.00000000
Si      -1.19938383       1.86379821       0.82551648       0.00000000
Si      -1.36599795      -0.60468480      -1.84472322       0.00000000
Si      -0.11841201      -1.81146429       1.52972260       0.00000000
Si      -2.23151823      -2.57434128       0.81267267       0.00000000
Si      -0.24733107       0.54423261      -3.57213040       0.00000000
Si      -2.91209814       0.78091002       2.05669784       0.00000000
Si      -1.72387296      -2.90903562      -1.44467106       0.00000000
Si       3.36989601      -0.34507107       1.49256851       0.00000000
Si      -1.94256621       2.97878030      -1.11675776       0.00000000
