10
Lattice="16.28999089631971 0.0 0.0 0.0 16.28999089631971 0.0 0.0 0.0 34.433804113860816" Properties=species:S:1:pos:R:3:initial_magmoms:R:1 pbc="T T T"
Si       1.35687909      -1.35891627       1.36072140       0.00000000
Si      -1.35884664       1.35766887       1.36065253       0.00000000
Si       1.34989648       1.35069675      -1.38874709       0.00000000
Si      -1.35083196      -1.35703423      -1.38428791       0.00000000
Si       2.71488555       2.71329009      -0.00368442       0.00000000
Si       2.71580431      -2.71241110       0.00268584       0.00000000
Si      -2.71655298      -2.71418671      -0.00210046       0.00000000
Si      -2.71761183       2.71338783       0.00082641       0.00000000
Si       2.71458582      -0.00105559       2.71741404       0.00000000
Si      -0.00086337       2.71438152       2.71775838       0.00000000
