10
Lattice="16.28999089631971 0.0 0.0 0.0 16.28999089631971 0.0 0.0 0.0 34.433804113860816" Properties=species:S:1:pos:R:3:initial_magmoms:R:1 pbc="T T T"
Si       1.72739390      -1.33214570      -0.81976603       0.00000000
Si      -1.60461387      -1.07158715       1.34426203       0.00000000
Si       0.69711426       1.67961303       1.54260085       0.00000000
Si      -0.84385458       0.23108994      -2.23275797       0.00000000
Si       0.33396129      -3.23292059      -0.76518842       0.00000000
Si      -2.89515654       0.84361023       1.97057884       0.00000000
Si      -0.29269872      -2.59912556       2.65312609       0.00000000
Si      -1.27220013       2.40634251       2.56731700       0.00000000
Si       1.67674666       0.43826616       3.37837128       0.00000000
Si       0.95584346       0.98580564      -3.59120674       0.00000000
