10
Lattice="16.28999089631971 0.0 0.0 0.0 16.28999089631971 0.0 0.0 0.0 34.433804113860816" Properties=species:S:1:pos:R:3:initial_magmoms:R:1 pbc="T T T"
Si       1.32170544       1.34128602       1.40083680       0.00000000
Si       1.49574780      -1.19356830      -1.36233979       0.00000000
Si      -1.23206157       1.48936212      -1.36943315       0.00000000
Si      -0.82943793      -1.80792936       1.29694996       0.00000000
Si      -0.18606438       1.33766964       3.29111597       0.00000000
Si      -0.34746570       3.47942997       0.67159729       0.00000000
Si      -2.28551958       0.39944709       2.81709996       0.00000000
Si       1.12111038      -3.19512060       1.39949388       0.00000000
Si       0.13585860      -2.56777641      -2.71107821       0.00000000
Si      -2.58506010       0.14607243      -2.71889469       0.00000000
