10
Lattice="16.28999089631971 0.0 0.0 0.0 16.28999089631971 0.0 0.0 0.0 34.433804113860816" Properties=species:S:1:pos:R:3:initial_magmoms:R:1 pbc="T T T"
Si       0.51214131       0.09402588       2.26691633       0.00000000
Si      -1.62295641      -1.56273228      -0.59673816       0.00000000
Si      -0.30011067       2.22272163      -0.64918087       0.00000000
Si       1.96931439      -0.72672948      -1.02471615       0.00000000
Si      -0.20442321       2.39476032       2.45020757       0.00000000
Si       2.94894679      -1.96807635       0.81105428       0.00000000
Si      -0.33241374      -3.47792966      -1.22305497       0.00000000
Si       1.27220013      -2.40634251      -2.56731700       0.00000000
Si      -1.93127724       3.08907270       0.86236067       0.00000000
Si       3.19122144       1.24818867      -1.52610705       0.00000000
