10
Lattice="16.28999089631971 0.0 0.0 0.0 16.28999089631971 0.0 0.0 0.0 34.433804113860816" Properties=species:S:1:pos:R:3:initial_magmoms:R:1 pbc="T T T"
Si      -0.68631399       0.15271875       2.18857938       0.00000000
Si       0.71656452      -2.30073444      -0.18329124       0.00000000
Si       2.02328316       1.12928796      -0.74480360       0.00000000
Si      -1.72685403       0.69431238      -1.58784690       0.00000000
Si      -0.09568746      -0.17203869      -3.09938844       0.00000000
Si       0.20442321      -2.39476032      -2.45020757       0.00000000
Si      -2.65235409      -1.20091509       1.93263277       0.00000000
Si       1.13006988      -0.70504749       3.35957041       0.00000000
Si      -3.06739071      -2.13837201      -0.12678534       0.00000000
Si      -2.15738244       1.98855288       2.45151605       0.00000000
