10
Lattice="16.28999089631971 0.0 0.0 0.0 16.28999089631971 0.0 0.0 0.0 34.433804113860816" Properties=species:S:1:pos:R:3:initial_magmoms:R:1 pbc="T T T"
Si      -1.32053256      -1.27452960       1.45979925       0.00000000
Si      -1.62865791       0.44061192      -1.75009907       0.00000000
Si       1.32031820       1.40735826       1.51515163       0.00000000
Si       0.55522089       0.32421987      -2.90624913       0.00000000
Si      -3.22426341      -2.02616649       0.20188551       0.00000000
Si       3.05917145      -1.53143919      -1.76425137       0.00000000
Si       2.81148200       0.92647746      -2.49335315       0.00000000
Si       0.00828466      -2.64072303       2.95595577       0.00000000
Si      -2.68887627       0.09539424       2.95746741       0.00000000
Si       2.72986910       0.08456139       2.96834161       0.00000000
