10
Lattice="16.28999089631971 0.0 0.0 0.0 16.28999089631971 0.0 0.0 0.0 34.433804113860816" Properties=species:S:1:pos:R:3:initial_magmoms:R:1 pbc="T T T"
Si       0.58130865       2.24222076      -0.39395737       0.00000000
Si       1.19553939      -0.92041758      -1.81263090       0.00000000
Si      -2.24815032      -0.69284628      -0.35036415       0.00000000
Si       0.93097350      -0.37299213       2.18733976       0.00000000
Si       2.99261865       2.11002741      -0.38435034       0.00000000
Si       3.11135157       0.44297397      -1.96369208       0.00000000
Si      -2.65160475      -2.38404150       1.23180116       0.00000000
Si      -0.92185110      -0.08185725       3.68627853       0.00000000
Si      -0.55974069       2.94532974      -2.40248229       0.00000000
Si      -3.95322462       0.75336363       0.29747380       0.00000000
