10
Lattice="16.28999089631971 0.0 0.0 0.0 16.28999089631971 0.0 0.0 0.0 34.433804113860816" Properties=species:S:1:pos:R:3:initial_magmoms:R:1 pbc="T T T"
Si       1.56763331       1.09004535      -1.44264777       0.00000000
Si      -1.47650931      -1.11804786      -1.55720910       0.00000000
Si      -1.24594065       1.43189100       1.56532029       0.00000000
Si       1.43820437      -1.27213497       1.57862896       0.00000000
Si      -2.61636948      -2.58872535       0.12566968       0.00000000
Si       2.75921227       2.66359486       0.10963729       0.00000000
Si       2.80718307      -2.68451055       0.28433041       0.00000000
Si      -2.63536362       2.87527689       0.23924276       0.00000000
Si      -2.61166167       0.07473852       2.94750773       0.00000000
Si       0.10389762      -2.64442086       2.95267281       0.00000000
