10
Lattice="16.28999089631971 0.0 0.0 0.0 16.28999089631971 0.0 0.0 0.0 34.433804113860816" Properties=species:S:1:pos:R:3:initial_magmoms:R:1 pbc="T T T"
Si       2.07102589      -0.14519277       1.12023558       0.00000000
Si      -1.22190705      -1.97491815       0.50139090       0.00000000
Si      -1.24961634       1.93624569       0.87396487       0.00000000
Si       2.70573316      -2.20656195       0.04076965       0.00000000
Si      -3.49133211       0.97453296       0.87692618       0.00000000
Si      -3.19122144      -1.24818867       1.52610705       0.00000000
Si       1.47714136      -0.26236674       3.44234932       0.00000000
Si       3.28226884       1.82035863       0.52143139       0.00000000
Si       1.47129325       3.32666235       1.12660583       0.00000000
Si       0.92178268      -1.95585885      -3.21691108       0.00000000
