10
Lattice="16.28999089631971 0.0 0.0 0.0 16.28999089631971 0.0 0.0 0.0 34.433804113860816" Properties=species:S:1:pos:R:3:initial_magmoms:R:1 pbc="T T T"
Si       1.35599589      -1.35951453      -1.35669264       0.00000000
Si       1.35606105       1.35848826       1.35806999       0.00000000
Si      -1.35868374      -1.35669636       1.35793226       0.00000000
Si      -1.35956340       1.35964485      -1.36185771       0.00000000
Si       2.69030264       0.01277136      -2.73073648       0.00000000
Si       2.71441631      -2.71349046       0.00075754       0.00000000
Si       2.71386867       2.71491530       0.00096415       0.00000000
Si       2.71389376       0.00037467       2.71548574       0.00000000
Si      -0.00079821      -2.71461447       2.71583008       0.00000000
Si      -2.71661814      -2.71404432       0.00061981       0.00000000
