10
Lattice="16.28999089631971 0.0 0.0 0.0 16.28999089631971 0.0 0.0 0.0 34.433804113860816" Properties=species:S:1:pos:R:3:initial_magmoms:R:1 pbc="T T T"
Si       1.84469589      -1.43264034       0.20229871       0.00000000
Si       0.40423635       1.54505763       1.79796209       0.00000000
Si      -2.24121078      -1.27760841      -0.76146957       0.00000000
Si       0.48014775       0.93123414      -2.50995025       0.00000000
Si      -1.88876034       0.85683771      -1.90067818       0.00000000
Si       1.65367935       3.11689602       0.61633100       0.00000000
Si      -3.54833667       0.27986220       0.59095328       0.00000000
Si      -2.54405817       2.72100015       0.19145206       0.00000000
Si      -1.99244619      -2.78765883       1.65344333       0.00000000
Si       3.23100162       2.01030003      -0.75206914       0.00000000
