10
Lattice="16.28999089631971 0.0 0.0 0.0 16.28999089631971 0.0 0.0 0.0 34.433804113860816" Properties=species:S:1:pos:R:3:initial_magmoms:R:1 pbc="T T T"
Si       2.00234466      -0.26495685      -1.29020093       0.00000000
Si      -1.18123677       1.86619869      -1.00398699       0.00000000
Si      -1.68215427      -1.69184682      -0.45321798       0.00000000
Si       0.81556441      -0.61217820       2.29129547       0.00000000
Si       2.70639521      -2.36240838      -0.51154888       0.00000000
Si       1.10815887       0.10404423      -3.45781011       0.00000000
Si       1.78688009      -2.82895398       1.59084264       0.00000000
Si      -2.24311671      -1.32652728      -2.76049075       0.00000000
Si      -0.18072126       2.07265815      -3.21205591       0.00000000
Si       1.82608524       1.65341871       2.93520797       0.00000000
