10
Lattice="16.28999089631971 0.0 0.0 0.0 16.28999089631971 0.0 0.0 0.0 34.433804113860816" Properties=species:S:1:pos:R:3:initial_magmoms:R:1 pbc="T T T"
Si      -1.34807636       1.35404109       1.35683038       0.00000000
Si       1.35794417       1.35672894      -1.35686481       0.00000000
Si      -1.35673213      -1.35812988      -1.35762235       0.00000000
Si       1.35818852      -1.35726651       1.36154781       0.00000000
Si      -2.71259192       0.00403992       2.70970086       0.00000000
Si       0.00062717       2.71430496      -2.71390179       0.00000000
Si      -2.71233128      -2.71614573      -0.00058537       0.00000000
Si      -2.71490510      -0.00070047      -2.71397066       0.00000000
Si       2.71506407      -0.00039096      -2.71417726       0.00000000
Si       0.00056200      -2.71564074      -2.71410839       0.00000000
