10
Lattice="16.28999089631971 0.0 0.0 0.0 16.28999089631971 0.0 0.0 0.0 34.433804113860816" Properties=species:S:1:pos:R:3:initial_magmoms:R:1 pbc="T T T"
Si      -1.36702000      -1.38158748      -1.31668054       0.00000000
Si      -1.85088187       0.13279608       1.49174210       0.00000000
Si       1.34030373       1.48458915      -1.31368479       0.00000000
Si      -0.45744926       2.03357097       1.43716449       0.00000000
Si       0.94308837       1.18943064       3.16154149       0.00000000
Si       2.92655877       1.40776551       1.68701631       0.00000000
Si      -0.90021961      -0.34000488       3.54165647       0.00000000
Si       0.07252634      -2.56709223      -2.72016874       0.00000000
Si      -2.36128015      -2.89258272       0.26004423       0.00000000
Si      -2.66464882       0.15727995      -2.69661601       0.00000000
