10
Lattice="16.28999089631971 0.0 0.0 0.0 16.28999089631971 0.0 0.0 0.0 34.376317263855086" Properties=species:S:1:pos:R:3:initial_magmoms:R:1 pbc="T T T"
Si      -1.34699981      -1.35797187       1.36397740       0.00000000
Si       1.37448483      -1.30667466      -1.39982161       0.00000000
Si       1.36577945       1.35723393       1.36177732       0.00000000
Si      -1.30832735       1.40893839      -1.40273672       0.00000000
Si       0.68331805       2.13128586      -2.55034328       0.00000000
Si       2.35908012       0.27188010      -2.85514867       0.00000000
Si      -2.69286332       2.72666907      -0.00324513       0.00000000
Si      -2.70439664      -0.00128691       2.72359589       0.00000000
Si      -2.70894155      -2.72007881      -0.01807164       0.00000000
Si       0.00919884       2.71394658       2.72349276       0.00000000
