10
Lattice="16.28999089631971 0.0 0.0 0.0 16.28999089631971 0.0 0.0 0.0 34.376317263855086" Properties=species:S:1:pos:R:3:initial_magmoms:R:1 pbc="T T T"
Si      -0.98984556       1.47012363       1.49959893       0.00000000
Si       1.34643366      -1.29337713       1.52551868       0.00000000
Si       0.67199508       0.56553993      -2.27186332       0.00000000
Si       1.94514003      -1.41613857      -2.06533030       0.00000000
Si       1.65087747      -2.84174163      -0.16098438       0.00000000
Si      -1.51022961       3.19166712       0.06452438       0.00000000
Si      -2.33617659       0.00778662       2.79148025       0.00000000
Si      -0.50906250      -3.74173155      -0.73668489       0.00000000
Si       0.46944522       2.69231346       2.89842504       0.00000000
Si       2.26212714       2.30653368      -2.34446615       0.00000000
