10
Lattice="16.28999089631971 0.0 0.0 0.0 16.28999089631971 0.0 0.0 0.0 34.376317263855086" Properties=species:S:1:pos:R:3:initial_magmoms:R:1 pbc="T T T"
Si      -1.59026238      -1.00779714      -1.45494406       0.00000000
Si      -0.82373643       0.87055389       2.12823899       0.00000000
Si       1.06144011       1.63722645      -1.54892897       0.00000000
Si       2.06505072      -1.54976544       0.10732292       0.00000000
Si      -1.06277589      -1.47442419       2.65430007       0.00000000
Si       2.51788014      -0.07073118       2.11569163       0.00000000
Si      -0.14305878      -2.30120359      -2.85247965       0.00000000
Si       2.56445325       0.43095195      -2.88943421       0.00000000
Si      -3.31037235      -2.03663444      -0.15352472       0.00000000
Si       1.09222821       1.39587381       3.46623476       0.00000000
