10
Lattice="16.28999089631971 0.0 0.0 0.0 16.28999089631971 0.0 0.0 0.0 34.376317263855086" Properties=species:S:1:pos:R:3:initial_magmoms:R:1 pbc="T T T"
Si       2.31163245      -0.34989291       0.00316262       0.00000000
Si      -0.95552253      -0.62687178      -2.05783625       0.00000000
Si      -0.70007904      -1.40292738       1.79757301       0.00000000
Si      -0.92957256       2.24160174       0.32351570       0.00000000
Si      -0.65127420       0.18194301       3.50673008       0.00000000
Si      -3.12290703       0.22903740      -1.77340645       0.00000000
Si       0.81497241      -0.17804970      -3.58081109       0.00000000
Si      -1.84753035       1.98956286       2.52690137       0.00000000
Si       3.22030494       1.79988210      -0.55314963       0.00000000
Si      -2.95539696      -1.79392159       1.49121110       0.00000000
