10
Lattice="16.28999089631971 0.0 0.0 0.0 16.28999089631971 0.0 0.0 0.0 34.376317263855086" Properties=species:S:1:pos:R:3:initial_magmoms:R:1 pbc="T T T"
Si      -0.86323968      -1.84754338      -1.20932514       0.00000000
Si      -1.77049494      -0.44882208       1.52297483       0.00000000
Si       0.23903946       2.34497808      -0.52606108       0.00000000
Si       1.06277589       1.47442419      -2.65430007       0.00000000
Si      -2.10890340      -2.68797122       0.94538363       0.00000000
Si      -2.24759646      -0.56221025      -2.80782479       0.00000000
Si      -0.81497241       0.17804970       3.58081109       0.00000000
Si       2.15500410       2.87029800       0.81193469       0.00000000
Si       1.80959094      -2.24419904       2.29211099       0.00000000
Si       3.58065603       1.40369301      -0.53860844       0.00000000
