10
Lattice="16.28999089631971 0.0 0.0 0.0 16.28999089631971 0.0 0.0 0.0 34.376317263855086" Properties=species:S:1:pos:R:3:initial_magmoms:R:1 pbc="T T T"
Si      -1.75724207      -0.78999984      -1.37787232       0.00000000
Si       0.81059040       1.93655520      -1.34693362       0.00000000
Si       1.95198183      -1.74087320      -0.08363763       0.00000000
Si      -2.51718686       0.33031233       1.99774642       0.00000000
Si      -1.11652963      -1.46388456       2.67059445       0.00000000
Si      -1.72172987       2.48614722       1.52795940       0.00000000
Si      -0.31981668      -2.01362482      -2.79524305       0.00000000
Si       2.39552595       0.73428804      -2.78819590       0.00000000
Si      -3.15836126      -2.20740740       0.07335910       0.00000000
Si       0.93325410      -3.51859832      -1.31537614       0.00000000
