10
Lattice="16.28999089631971 0.0 0.0 0.0 16.28999089631971 0.0 0.0 0.0 34.376317263855086" Properties=species:S:1:pos:R:3:initial_magmoms:R:1 pbc="T T T"
Si       1.42234506      -1.22533380      -1.50719610       0.00000000
Si       1.70619831       0.93748950       1.41819576       0.00000000
Si      -1.27524636       1.47988134      -1.46329751       0.00000000
Si      -1.25020863      -1.49589441       1.49286116       0.00000000
Si       0.57638907      -2.58655878       2.48396532       0.00000000
Si       2.61798219       2.68319106      -0.05383334       0.00000000
Si       2.74387131      -2.60307684      -0.21997418       0.00000000
Si       3.57115896      -0.87065163       1.14050372       0.00000000
Si       0.09374895      -2.58813891      -2.85643293       0.00000000
Si      -2.62084923       0.12230532      -2.85509225       0.00000000
