10
Lattice="16.28999089631971 0.0 0.0 0.0 16.28999089631971 0.0 0.0 0.0 34.376317263855086" Properties=species:S:1:pos:R:3:initial_magmoms:R:1 pbc="T T T"
Si       0.94643271      -1.52919117      -1.46786957       0.00000000
Si       1.38725640       1.08771588       1.55281349       0.00000000
Si      -0.91372239       1.72773369      -1.31802312       0.00000000
Si      -1.59917301      -0.67183218       1.63071027       0.00000000
Si      -0.07975584       2.84903955       2.02823823       0.00000000
Si      -2.01965049       1.55781270       2.40163400       0.00000000
Si      -0.60000957      -3.32021151      -1.27195883       0.00000000
Si       1.42553790      -0.14789691      -3.31762586       0.00000000
Si       1.98180882      -0.63527742       2.96382460       0.00000000
Si       0.03029940       3.61936107      -0.28563298       0.00000000
