10
Lattice="16.28999089631971 0.0 0.0 0.0 16.28999089631971 0.0 0.0 0.0 34.376317263855086" Properties=species:S:1:pos:R:3:initial_magmoms:R:1 pbc="T T T"
Si      -1.18488573       1.37404521      -1.49035169       0.00000000
Si       1.23022080       1.37839464       1.55363853       0.00000000
Si      -1.56066345      -1.28658420       1.46776644       0.00000000
Si       1.52930520      -1.34236116      -1.46697578       0.00000000
Si      -2.64355749       2.56016898      -0.00591273       0.00000000
Si      -2.46480732      -2.82911688      -0.02763857       0.00000000
Si      -2.53376289       0.01773981      -2.85667356       0.00000000
Si       1.52218647      -0.08677683       3.51659609       0.00000000
Si      -0.29281275      -1.72126656       3.47414132       0.00000000
Si       0.18370233      -2.69993718      -2.85877052       0.00000000
