10
Lattice="16.28999089631971 0.0 0.0 0.0 16.28999089631971 0.0 0.0 0.0 34.376317263855086" Properties=species:S:1:pos:R:3:initial_magmoms:R:1 pbc="T T T"
Si       1.35545832       1.35621728       1.35707464       0.00000000
Si      -1.35707103       1.35738690      -1.35800280       0.00000000
Si       1.35739683      -1.35717937      -1.35789967       0.00000000
Si      -1.35987291      -1.35986722       1.35576833       0.00000000
Si       0.00060273       2.71265625      -2.71476804       0.00000000
Si       2.71342530       0.00005911      -2.71579933       0.00000000
Si      -2.71454931       2.71467621      -0.00051565       0.00000000
Si      -0.00263898      -2.71110643       2.71824005       0.00000000
Si      -0.00076563      -2.71472281      -2.71473367       0.00000000
Si      -2.71529865      -0.00044012      -2.71432115       0.00000000
