10
Lattice="16.28999089631971 0.0 0.0 0.0 16.28999089631971 0.0 0.0 0.0 34.376317263855086" Properties=species:S:1:pos:R:3:initial_magmoms:R:1 pbc="T T T"
Si      -1.26991953       1.39701411      -1.36003100       0.00000000
Si       1.49939676       1.25276616       1.33978334       0.00000000
Si       1.43974278      -1.32537069      -1.34799928       0.00000000
Si      -1.76932206      -0.58370328       1.63672613       0.00000000
Si      -0.04279383       2.51558325       2.54054877       0.00000000
Si      -0.90701091      -2.68048334       2.43102576       0.00000000
Si      -2.62132164       0.03539817      -2.70809903       0.00000000
Si       2.67923259      -2.69641088       0.08078439       0.00000000
Si      -2.77293267       2.60328861      -0.01952576       0.00000000
Si      -2.57468337      -2.77512272       0.40196250       0.00000000
