10
Lattice="16.28999089631971 0.0 0.0 0.0 16.28999089631971 0.0 0.0 0.0 34.376317263855086" Properties=species:S:1:pos:R:3:initial_magmoms:R:1 pbc="T T T"
Si      -0.31785048       2.05952841       1.00289524       0.00000000
Si       0.08390979       0.52181757      -2.27464781       0.00000000
Si      -2.13434838      -1.05293673      -0.02533536       0.00000000
Si       2.06231400      -0.85242312       0.83761381       0.00000000
Si       0.32454567      -1.79398512      -2.83096006       0.00000000
Si       1.21303485       3.37102002      -0.29048004       0.00000000
Si       1.61523495       2.27374191      -2.34859131       0.00000000
Si      -2.52047025       2.64735306       0.66439146       0.00000000
Si      -2.08542951       1.40721165      -2.79036161       0.00000000
Si      -3.58875216       0.56777166       1.01389567       0.00000000
