10
Lattice="16.28999089631971 0.0 0.0 0.0 16.28999089631971 0.0 0.0 0.0 34.376317263855086" Properties=species:S:1:pos:R:3:initial_magmoms:R:1 pbc="T T T"
Si      -1.36133901      -1.35627282       1.34978685       0.00000000
Si      -1.35733167       1.35583299      -1.35917159       0.00000000
Si       1.35754344      -1.35881406      -1.35831218       0.00000000
Si       1.36995642       1.35760860       1.36381240       0.00000000
Si      -0.06291198       2.70291825       2.63621812       0.00000000
Si       2.71388142      -2.71375110       0.00161569       0.00000000
Si       2.71599912       2.71164969      -0.00030939       0.00000000
Si      -2.71402803      -0.00110772      -2.71528369       0.00000000
Si       0.00115659       2.71451673      -2.71552432       0.00000000
Si      -2.71274112      -2.71788876       0.00171882       0.00000000
