10
Lattice="16.28999089631971 0.0 0.0 0.0 16.28999089631971 0.0 0.0 0.0 34.376317263855086" Properties=species:S:1:pos:R:3:initial_magmoms:R:1 pbc="T T T"
Si       1.26991953      -1.39701411       1.36003100       0.00000000
Si      -1.35140211      -1.36161594      -1.34806803       0.00000000
Si      -1.50301314       1.20627450       1.34050524       0.00000000
Si       1.36133901       1.35627282      -1.34978685       0.00000000
Si       0.01920591       2.51387280       2.48750608       0.00000000
Si      -0.49940253      -1.98071739       2.99675713       0.00000000
Si      -2.71161711      -0.00249237      -2.70820216       0.00000000
Si       0.00400734       2.71210581      -2.70895844       0.00000000
Si       0.00255753      -2.71834814      -2.70782402       0.00000000
Si       2.71888245      -0.00254124      -2.70809903       0.00000000
