10
Lattice="16.28999089631971 0.0 0.0 0.0 16.28999089631971 0.0 0.0 0.0 34.376317263855086" Properties=species:S:1:pos:R:3:initial_magmoms:R:1 pbc="T T T"
Si       1.35690813       1.35689184      -1.35759028       0.00000000
Si       1.35742941      -1.35685926       1.35789967       0.00000000
Si      -1.35685926      -1.35826020      -1.35741840       0.00000000
Si      -1.35793440       1.35788553       1.35783091       0.00000000
Si       2.71419093      -0.00034209       2.71552432       0.00000000
Si       2.71490769       2.71480995       0.00072190       0.00000000
Si      -0.00105885      -2.71554300       2.71425240       0.00000000
Si      -2.71508688      -2.71480995       0.00020626       0.00000000
Si       2.71500543      -2.71516833       0.00079066       0.00000000
Si      -2.71625976      -0.00061902       2.71404614       0.00000000
