10
Lattice="16.28999089631971 0.0 0.0 0.0 16.28999089631971 0.0 0.0 0.0 34.376317263855086" Properties=species:S:1:pos:R:3:initial_magmoms:R:1 pbc="T T T"
Si       1.35676152       1.35651717       1.35762466       0.00000000
Si      -1.35742941       1.35685926      -1.35789967       0.00000000
Si       1.35757602      -1.35830907      -1.35710901       0.00000000
Si      -1.35848826      -1.35868374       1.35635273       0.00000000
Si       2.71415835       2.71458189      -0.00017188       0.00000000
Si      -0.00052128       2.71375110      -2.71548995       0.00000000
Si      -2.71419093       0.00333945       2.71528369       0.00000000
Si      -2.71428867      -0.00140094      -2.71531807       0.00000000
Si       2.71453302      -2.71516833      -0.00030939       0.00000000
Si      -0.00102627      -2.71417464      -2.71559308       0.00000000
