10
Lattice="16.28999089631971 0.0 0.0 0.0 16.28999089631971 0.0 0.0 0.0 34.376317263855086" Properties=species:S:1:pos:R:3:initial_magmoms:R:1 pbc="T T T"
Si      -0.82728765      -1.73242521      -1.36047789       0.00000000
Si       1.89016128       0.90577287      -1.21936303       0.00000000
Si      -1.86496065       1.80814113       0.27769205       0.00000000
Si       1.52717121      -1.86364116       1.48818598       0.00000000
Si       1.42182378       1.65131730       1.96539829       0.00000000
Si       0.63615708      -0.29802555       2.90339100       0.00000000
Si      -2.14881390      -0.35468217      -2.64769981       0.00000000
Si       0.59377050       2.35107054      -2.61655485       0.00000000
Si      -2.99476989      -1.71590715       1.34346161       0.00000000
Si       3.17529567       2.13231213       0.31846238       0.00000000
