10
Lattice="16.28999089631971 0.0 0.0 0.0 16.28999089631971 0.0 0.0 0.0 34.376317263855086" Properties=species:S:1:pos:R:3:initial_magmoms:R:1 pbc="T T T"
Si      -1.32152625       1.37774304      -1.28722192       0.00000000
Si      -1.27922112      -1.54531827       1.20107482       0.00000000
Si       1.43286840      -1.34530965      -1.27240572       0.00000000
Si       0.82728765       1.73242521       1.36047789       0.00000000
Si      -2.16748224       0.01651806       2.70393950       0.00000000
Si       2.35445886      -0.13121595       2.84866387       0.00000000
Si      -2.65012236       0.01493793      -2.63645875       0.00000000
Si       0.06291198      -2.70291825      -2.63621812       0.00000000
Si      -2.74387131       2.60307684       0.21997418       0.00000000
Si       2.71744893       2.63819808       0.14111486       0.00000000
