10
Lattice="16.28999089631971 0.0 0.0 0.0 16.28999089631971 0.0 0.0 0.0 34.376317263855086" Properties=species:S:1:pos:R:3:initial_magmoms:R:1 pbc="T T T"
Si       0.12281031      -1.60479306      -1.65432682       0.00000000
Si       1.82434968       1.39937616      -0.38394930       0.00000000
Si      -1.73573208       1.41794676      -0.79942170       0.00000000
Si       0.01848915      -0.94640013       2.20929839       0.00000000
Si       2.66102037       1.88499735       1.70788515       0.00000000
Si      -0.62191962       0.88523118       3.56403544       0.00000000
Si      -2.31889779       2.74670577       1.02713056       0.00000000
Si      -0.46819089      -0.58479471      -3.70123140       0.00000000
Si       1.05446799       3.62224440      -0.78649620       0.00000000
Si       3.16273608       0.83308689      -2.14130200       0.00000000
