10
Lattice="16.28999089631971 0.0 0.0 0.0 16.28999089631971 0.0 0.0 0.0 34.376317263855086" Properties=species:S:1:pos:R:3:initial_magmoms:R:1 pbc="T T T"
Si       2.10957129       0.04592151       0.98711650       0.00000000
Si       0.16037505       0.38678976      -2.29561737       0.00000000
Si      -1.07175168      -2.17217376      -0.07012773       0.00000000
Si      -0.98033220       1.76088384       1.44892821       0.00000000
Si       1.18964241       0.28158894       3.12845288       0.00000000
Si      -3.30032142      -1.57915260      -0.48890026       0.00000000
Si       2.73720870      -2.19268287       1.15349797       0.00000000
Si      -2.01570831       0.86697009      -2.98276596       0.00000000
Si      -0.99629640      -2.91634983       2.10836947       0.00000000
Si      -0.81019944      -1.03465935       3.51198966       0.00000000
