10
Lattice="16.28999089631971 0.0 0.0 0.0 16.28999089631971 0.0 0.0 0.0 34.376317263855086" Properties=species:S:1:pos:R:3:initial_magmoms:R:1 pbc="T T T"
Si      -1.77420906       0.04300560      -1.47048217       0.00000000
Si       0.28295730      -2.29599405       0.23255592       0.00000000
Si       1.76358798       1.02517857      -1.15109163       0.00000000
Si      -0.29533770       1.33853301       2.02672567       0.00000000
Si       1.40911758      -2.68877853      -1.81104853       0.00000000
Si       2.90665728      -0.87669522      -1.93394394       0.00000000
Si       2.91907026       2.02373928       0.62248670       0.00000000
Si      -2.42942544       2.28677391      -1.48162010       0.00000000
Si      -0.85428018      -0.19266183      -3.61181854       0.00000000
Si      -2.54011599       0.94991877       2.68792013       0.00000000
