10
Lattice="16.28999089631971 0.0 0.0 0.0 16.28999089631971 0.0 0.0 0.0 34.376317263855086" Properties=species:S:1:pos:R:3:initial_magmoms:R:1 pbc="T T T"
Si      -1.35723393       1.35123921      -1.36247172       0.00000000
Si       1.34566803       1.35075051       1.38526323       0.00000000
Si       1.36029645      -1.36187658      -1.36058102       0.00000000
Si      -1.36515087      -1.36216980       1.38976653       0.00000000
Si       2.52807768      -0.15886008       2.79923070       0.00000000
Si      -2.70891297       2.71295918       0.00044689       0.00000000
Si       0.00263898       2.71110643      -2.71824005       0.00000000
Si      -2.71075374      -2.71974582      -0.00202820       0.00000000
Si      -2.71212210      -0.00386073      -2.71889320       0.00000000
Si       2.72049516       2.71140534      -0.00010313       0.00000000
