10
Lattice="16.28999089631971 0.0 0.0 0.0 16.28999089631971 0.0 0.0 0.0 34.376317263855086" Properties=species:S:1:pos:R:3:initial_magmoms:R:1 pbc="T T T"
Si      -0.65129049      -1.34933328      -1.78760387       0.00000000
Si      -1.89499941       1.19982366       0.74991978       0.00000000
Si       1.15815384      -1.59176106       1.32922980       0.00000000
Si       1.37595114       1.91901087      -0.38917451       0.00000000
Si      -0.94566708       2.43768447       2.53876120       0.00000000
Si       2.00347452      -0.41733351       3.19418043       0.00000000
Si       2.87205732      -2.55153528       0.00501895       0.00000000
Si       0.60369111       3.61639729       1.15201979       0.00000000
Si       0.59344470       2.88950391      -2.48606228       0.00000000
Si       1.20057300      -2.13573303      -2.99146318       0.00000000
