10
Lattice="16.28999089631971 0.0 0.0 0.0 16.28999089631971 0.0 0.0 0.0 34.376317263855086" Properties=species:S:1:pos:R:3:initial_magmoms:R:1 pbc="T T T"
Si      -1.74482190       1.15784433       1.06827903       0.00000000
Si       1.15197993      -1.39712814       1.52080913       0.00000000
Si      -0.84688452      -0.74914452      -2.09668151       0.00000000
Si       1.47095442       1.82729817      -0.48188748       0.00000000
Si       1.13769360      -1.83216888      -2.86458012       0.00000000
Si      -2.27061423       2.89436552      -0.40794398       0.00000000
Si      -0.03243339       3.63892929      -0.73386603       0.00000000
Si      -0.44000919      -3.36000798       1.72720465       0.00000000
Si       3.33472590       1.55204604       0.99320111       0.00000000
Si      -3.63374514      -0.26616231       1.27508707       0.00000000
