10
Lattice="16.28999089631971 0.0 0.0 0.0 16.28999089631971 0.0 0.0 0.0 34.376317263855086" Properties=species:S:1:pos:R:3:initial_magmoms:R:1 pbc="T T T"
Si      -1.35736425      -1.35523354      -1.35755590       0.00000000
Si       1.36114353      -1.35383712       1.35765903       0.00000000
Si       1.35820288       1.35963996      -1.35769341       0.00000000
Si      -1.35894438       1.36161105       1.35954973       0.00000000
Si       2.71352697      -2.71382833      -0.00065315       0.00000000
Si       0.00060273      -2.71299754      -2.71535244       0.00000000
Si      -2.71492398      -2.71490347      -0.00130630       0.00000000
Si      -2.71477737       0.00228549      -2.71531807       0.00000000
Si       2.71559580       0.00229689      -2.71497430       0.00000000
Si       2.71411667       2.71711824      -0.00068753       0.00000000
