10
Lattice="16.28999089631971 0.0 0.0 0.0 16.28999089631971 0.0 0.0 0.0 34.376317263855086" Properties=species:S:1:pos:R:3:initial_magmoms:R:1 pbc="T T T"
Si       1.35567009       1.15930440       1.45209083       0.00000000
Si      -1.23948981       1.37104019      -1.42878367       0.00000000
Si      -1.63983285      -1.23163658       1.31730121       0.00000000
Si       1.46821770      -1.33625096      -1.41726760       0.00000000
Si       1.92274128      -0.92616650       2.61174216       0.00000000
Si      -0.02507031       2.52756503       2.76255115       0.00000000
Si      -0.19925928      -2.44457369       2.84828573       0.00000000
Si       2.75678928       2.57671196       0.00085941       0.00000000
Si      -2.58419673       0.01915849      -2.78757712       0.00000000
Si      -2.67923259       2.69641088      -0.08078439       0.00000000
