10
Lattice="16.28999089631971 0.0 0.0 0.0 16.28999089631971 0.0 0.0 0.0 34.376317263855086" Properties=species:S:1:pos:R:3:initial_magmoms:R:1 pbc="T T T"
Si       1.38074040      -1.36826063      -1.31046032       0.00000000
Si      -1.15476552       1.42161201      -1.50355220       0.00000000
Si       2.02191480       1.16945910       0.61392699       0.00000000
Si      -0.58060818      -0.59727285       2.36275436       0.00000000
Si       0.68701446       1.45161819       2.52047299       0.00000000
Si       3.42257202      -0.62473779       1.28677503       0.00000000
Si       0.02507031      -2.52756503      -2.76255115       0.00000000
Si      -2.69695611       2.68442910      -0.30278677       0.00000000
Si      -2.88324855      -0.09871740       2.57564701       0.00000000
Si      -2.65416228       0.16884585      -2.84333554       0.00000000
