10
Lattice="16.28999089631971 0.0 0.0 0.0 16.28999089631971 0.0 0.0 0.0 34.376317263855086" Properties=species:S:1:pos:R:3:initial_magmoms:R:1 pbc="T T T"
Si      -2.30264037       0.49855545       0.21289265       0.00000000
Si       1.26762264       2.04889104       0.15771863       0.00000000
Si       1.27400832      -1.74792026       1.11898413       0.00000000
Si       0.58060818       0.59727285      -2.36275436       0.00000000
Si       2.60252298       1.76673195      -1.74882737       0.00000000
Si      -2.30957991       1.62903258       2.31088047       0.00000000
Si      -3.13152444      -1.88582716      -0.32234691       0.00000000
Si       3.14664156      -2.08822229      -0.34104763       0.00000000
Si      -0.31830660      -3.45962852       1.66298965       0.00000000
Si       2.20143060      -0.89813938       3.12009943       0.00000000
