10
Lattice="16.28999089631971 0.0 0.0 0.0 16.28999089631971 0.0 0.0 0.0 34.376317263855086" Properties=species:S:1:pos:R:3:initial_magmoms:R:1 pbc="T T T"
Si      -1.35248444       1.35808101       1.35624960       0.00000000
Si      -1.35591379      -1.35747828      -1.35700588       0.00000000
Si       1.35850455       1.35739683      -1.35714339       0.00000000
Si       1.36032903      -1.35731538       1.36150918       0.00000000
Si      -2.71370942       2.71347417       0.00024063       0.00000000
Si      -2.71343249       0.00001629      -2.71463054       0.00000000
Si       0.00147913      -2.71482135      -2.71428678       0.00000000
Si       0.00138791       2.71489140      -2.71445866       0.00000000
Si      -0.02355208       2.70625770       2.72329338       0.00000000
Si       2.71681362       2.71309950       0.00003438       0.00000000
