10
Lattice="16.28999089631971 0.0 0.0 0.0 16.28999089631971 0.0 0.0 0.0 34.376317263855086" Properties=species:S:1:pos:R:3:initial_magmoms:R:1 pbc="T T T"
Si      -1.43286840       1.34530965       1.27240572       0.00000000
Si       1.34604270       1.35404109      -1.36412178       0.00000000
Si      -1.36995642      -1.35760860      -1.36381240       0.00000000
Si       1.39421223      -1.33281522       1.41558316       0.00000000
Si      -2.71208952      -0.20000862       2.47348054       0.00000000
Si       2.69902494       2.71463076       0.00010313       0.00000000
Si       2.70876636      -2.71376739       0.01000351       0.00000000
Si       2.70327663      -0.00237834      -2.72219333       0.00000000
Si       2.59577892       0.10827963       2.82628488       0.00000000
Si      -0.01203831       2.71342530      -2.72171206       0.00000000
