10
Lattice="16.28999089631971 0.0 0.0 0.0 16.28999089631971 0.0 0.0 0.0 34.376317263855086" Properties=species:S:1:pos:R:3:initial_magmoms:R:1 pbc="T T T"
Si      -0.89101413       1.56561561       1.41520502       0.00000000
Si       2.07280476       0.88863579       0.66865412       0.00000000
Si       1.67418846      -1.10581407      -1.29478471       0.00000000
Si       0.62490069      -1.19128770       2.35862920       0.00000000
Si      -1.52717121       1.86364116      -1.48818598       0.00000000
Si      -0.10534743       3.51495846       0.47721230       0.00000000
Si      -2.35445886       0.13121595      -2.84866387       0.00000000
Si      -2.42576019      -2.80940598      -0.23451537       0.00000000
Si       0.47262177      -2.54690892      -2.70548643       0.00000000
Si       3.03999093      -0.70872903       2.10513809       0.00000000
