10
Lattice="16.28999089631971 0.0 0.0 0.0 16.28999089631971 0.0 0.0 0.0 34.376317263855086" Properties=species:S:1:pos:R:3:initial_magmoms:R:1 pbc="T T T"
Si      -1.32893235      -1.34817669      -1.36704377       0.00000000
Si       1.38278968       1.36795275      -1.35985912       0.00000000
Si       1.14904447      -1.49444460       1.45772855       0.00000000
Si      -1.42242066       1.32934545       1.39275727       0.00000000
Si       0.31996492       2.20776741       2.72769355       0.00000000
Si       2.08327597       0.27181494       2.94546764       0.00000000
Si      -2.68466760      -2.70417258       0.00914411       0.00000000
Si      -2.69015733       0.00721647      -2.72305274       0.00000000
Si      -2.69440902       2.72422557      -0.00075628       0.00000000
Si       0.02355208      -2.70625770      -2.72329338       0.00000000
