10
Lattice="16.28999089631971 0.0 0.0 0.0 16.28999089631971 0.0 0.0 0.0 34.376317263855086" Properties=species:S:1:pos:R:3:initial_magmoms:R:1 pbc="T T T"
Si      -1.35668007       1.35708732      -1.35700588       0.00000000
Si       1.35648459       1.35666378       1.35793404       0.00000000
Si       1.35795069      -1.35729909      -1.35717776       0.00000000
Si      -1.35739683      -1.35806472       1.35779654       0.00000000
Si       0.00055386       2.71363707      -2.71490555       0.00000000
Si      -2.71415835      -2.71458189       0.00017188       0.00000000
Si       2.71458189       0.00008145      -2.71442428       0.00000000
Si      -2.71440270       2.71536381      -0.00006875       0.00000000
Si      -2.71467963      -0.00083079      -2.71531807       0.00000000
Si      -2.71259451       0.00058644       2.71744940       0.00000000
