10
Lattice="16.28999089631971 0.0 0.0 0.0 16.28999089631971 0.0 0.0 0.0 34.376317263855086" Properties=species:S:1:pos:R:3:initial_magmoms:R:1 pbc="T T T"
Si       0.87734682       2.18668815       0.17834443       0.00000000
Si      -2.12463954       0.25464528       1.05586917       0.00000000
Si       2.07088158      -1.15049754       0.40075933       0.00000000
Si       1.07043219      -2.67612120       1.87925119       0.00000000
Si       1.98178017      -2.59641423      -1.44452804       0.00000000
Si       1.25125119       2.63132370      -2.10249112       0.00000000
Si      -1.57610637       1.59207057       2.89923147       0.00000000
Si      -0.75748500       3.35409471       1.33586444       0.00000000
Si       1.18513008      -1.31838228      -3.25650473       0.00000000
Si      -1.22996016      -1.80094095      -3.00301363       0.00000000
