10
Lattice="16.28999089631971 0.0 0.0 0.0 16.28999089631971 0.0 0.0 0.0 34.376317263855086" Properties=species:S:1:pos:R:3:initial_magmoms:R:1 pbc="T T T"
Si      -0.68031927      -0.44253414       2.20613577       0.00000000
Si       1.55202781       1.80761985       0.45469580       0.00000000
Si      -1.43602866       1.16633142      -1.61414088       0.00000000
Si       0.72575208      -2.31681267      -0.42956670       0.00000000
Si       3.05098083      -1.51612659      -0.25232231       0.00000000
Si       3.17052989       0.85615353      -0.96322495       0.00000000
Si      -1.82338857       1.45933965       2.98898808       0.00000000
Si      -3.14993214       2.12610564      -0.28993002       0.00000000
Si      -2.17785897      -2.25461745       2.32903117       0.00000000
Si      -1.98456183      -0.17109387      -3.45750317       0.00000000
