10
Lattice="16.28999089631971 0.0 0.0 0.0 16.28999089631971 0.0 0.0 0.0 34.376317263855086" Properties=species:S:1:pos:R:3:initial_magmoms:R:1 pbc="T T T"
Si      -1.35724209      -1.35800422       1.35697151       0.00000000
Si       1.35775098       1.35729021       1.35734965       0.00000000
Si      -1.35686742       1.35806235      -1.35917159       0.00000000
Si       1.35708797      -1.36007305      -1.36281548       0.00000000
Si      -2.71426425       2.71474731       0.00044689       0.00000000
Si       0.00035806       2.71463328       2.71463054       0.00000000
Si       2.71521622      -0.00095886       2.71469929       0.00000000
Si      -2.71520907      -0.00024022       2.71476804       0.00000000
Si       0.00061799      -2.71549879       2.71490555       0.00000000
Si       2.71634023       2.71429119      -0.00041252       0.00000000
