10
Lattice="16.28999089631971 0.0 0.0 0.0 16.28999089631971 0.0 0.0 0.0 34.376317263855086" Properties=species:S:1:pos:R:3:initial_magmoms:R:1 pbc="T T T"
Si       0.22920030       1.60073685       1.71146029       0.00000000
Si      -2.31117959      -0.49511826      -0.13719596       0.00000000
Si       1.19625615      -1.80761985       0.97982872       0.00000000
Si       0.91795779       0.25203888      -2.20338566       0.00000000
Si       1.14745131      -3.39249024      -0.72932835       0.00000000
Si       0.73671525       0.13574457       3.62034388       0.00000000
Si       1.84753035      -1.98956286      -2.52690137       0.00000000
Si       0.11564271      -2.11639680       3.08231983       0.00000000
Si      -3.42208007       1.59927075      -0.27545758       0.00000000
Si      -2.46298284      -2.02556376      -2.11056955       0.00000000
