10
Lattice="16.28999089631971 0.0 0.0 0.0 16.28999089631971 0.0 0.0 0.0 34.376317263855086" Properties=species:S:1:pos:R:3:initial_magmoms:R:1 pbc="T T T"
Si       0.89615851       0.35106579       2.19080392       0.00000000
Si       1.81080943      -1.58426766      -0.39488098       0.00000000
Si      -2.32522875      -0.80068608      -0.17724439       0.00000000
Si       0.11954905       2.37228012      -0.71090264       0.00000000
Si       2.71394332       1.52212131       1.17412377       0.00000000
Si      -1.84047093      -1.58573376      -2.38179885       0.00000000
Si      -3.05098083       1.51612659       0.25232231       0.00000000
Si       3.38786062       0.13255173      -0.69543329       0.00000000
Si      -1.49895302       3.32374644       0.70701811       0.00000000
Si      -2.32236171      -2.61682560       1.46756018       0.00000000
