10
Lattice="16.28999089631971 0.0 0.0 0.0 16.28999089631971 0.0 0.0 0.0 34.376317263855086" Properties=species:S:1:pos:R:3:initial_magmoms:R:1 pbc="T T T"
Si       1.35635427       1.35695700       1.35734965       0.00000000
Si      -1.35835468      -1.35840681       1.35721214       0.00000000
Si      -1.35752389       1.35855342      -1.36006538       0.00000000
Si       1.35705474      -1.36223496      -1.35879345       0.00000000
Si       2.71365336      -2.71454931      -0.00092816       0.00000000
Si      -0.00102627       2.71396287       2.71473367       0.00000000
Si       2.71373481       2.71508688       0.00048127       0.00000000
Si       2.71428867      -0.00087966       2.71493993       0.00000000
Si      -2.71529045      -0.00133578       2.71445866       0.00000000
Si      -0.00123804      -2.71590138       2.71452741       0.00000000
