10
Lattice="16.28999089631971 0.0 0.0 0.0 16.28999089631971 0.0 0.0 0.0 34.376317263855086" Properties=species:S:1:pos:R:3:initial_magmoms:R:1 pbc="T T T"
Si       1.35654975       1.35604476       1.35752153       0.00000000
Si       1.35738054      -1.35700587      -1.35738402       0.00000000
Si      -1.35717529       1.35754344      -1.35745277       0.00000000
Si      -1.36021174      -1.35907470       1.35738402       0.00000000
Si      -2.71054916       0.00123804       2.71590246       0.00000000
Si       0.00185706       2.71459818      -2.71366800       0.00000000
Si       0.00102627      -2.71396287      -2.71473367       0.00000000
Si       2.71476108       0.00112401      -2.71425240       0.00000000
Si      -2.71437017       2.71511946       0.00020626       0.00000000
Si      -2.71426418      -2.71529865      -0.00027501       0.00000000
