10
Lattice="16.28999089631971 0.0 0.0 0.0 16.28999089631971 0.0 0.0 0.0 34.376317263855086" Properties=species:S:1:pos:R:3:initial_magmoms:R:1 pbc="T T T"
Si      -1.74238559      -0.87842196      -1.33493627       0.00000000
Si      -1.15911332       1.56999762       1.44456241       0.00000000
Si       1.13049342       1.74333951      -1.26013337       0.00000000
Si       1.76331105      -1.93595247       0.21777409       0.00000000
Si      -2.71900367      -0.09544311       2.06117076       0.00000000
Si      -0.31996492      -2.20776741      -2.72769355       0.00000000
Si       2.43807543       0.50893218      -2.72769355       0.00000000
Si      -0.58564342       0.40457844       3.67623980       0.00000000
Si      -3.11761997      -2.08989297       0.09773192       0.00000000
Si       2.03463729       3.28587219       0.23527165       0.00000000
