10
Lattice="16.28999089631971 0.0 0.0 0.0 16.28999089631971 0.0 0.0 0.0 34.376317263855086" Properties=species:S:1:pos:R:3:initial_magmoms:R:1 pbc="T T T"
Si       1.30758201      -1.23440733      -1.46756018       0.00000000
Si       0.90414387       1.54253268       1.49540501       0.00000000
Si      -1.13049342      -1.74333951       1.26013337       0.00000000
Si      -1.42149146       1.46719143      -1.45305337       0.00000000
Si      -1.13083551       1.94422779       2.72862171       0.00000000
Si      -2.28960674      -0.17334189       2.70469578       0.00000000
Si       2.48106474      -2.72132595       0.02990741       0.00000000
Si       2.46480732       2.82911688       0.02763857       0.00000000
Si      -0.06766866      -2.58315417      -2.82741930       0.00000000
Si       2.64850965       0.12917970      -2.83113194       0.00000000
