10
Lattice="16.28999089631971 0.0 0.0 0.0 16.28999089631971 0.0 0.0 0.0 34.376317263855086" Properties=species:S:1:pos:R:3:initial_magmoms:R:1 pbc="T T T"
Si       1.61850207      -0.95146632      -1.41792075       0.00000000
Si      -1.55202781      -1.80761985      -0.45469580       0.00000000
Si      -0.70805920       2.22780411      -0.65040029       0.00000000
Si       0.88846084       0.56589831       2.25051562       0.00000000
Si      -2.23234708      -2.25015399       1.75143997       0.00000000
Si      -1.84067032       2.86174575       1.30664455       0.00000000
Si       1.39281715       3.10871844      -1.34758677       0.00000000
Si      -2.98805647      -0.64128843      -2.06883668       0.00000000
Si       1.49895302      -3.32374644      -0.70701811       0.00000000
Si       3.62582103       0.11228697      -0.79773726       0.00000000
