10
Lattice="16.28999089631971 0.0 0.0 0.0 16.28999089631971 0.0 0.0 0.0 34.376317263855086" Properties=species:S:1:pos:R:3:initial_magmoms:R:1 pbc="T T T"
Si      -1.35506415      -1.35666378      -1.35676525       0.00000000
Si      -1.35238344       1.35999121       1.35831218       0.00000000
Si       1.35953408       1.35787615      -1.35697151       0.00000000
Si       1.35854039      -1.35482301       1.36178419       0.00000000
Si      -0.00432499       2.69257966       2.73267812       0.00000000
Si      -2.71352697       2.71382833       0.00065315       0.00000000
Si      -2.71292424       0.00083079      -2.71469929       0.00000000
Si       0.00213073      -2.71423980      -2.71442428       0.00000000
Si      -2.71455324      -2.71503801       0.00082503       0.00000000
Si       2.71539965       2.71445061      -0.00013751       0.00000000
