10
Lattice="16.28999089631971 0.0 0.0 0.0 16.28999089631971 0.0 0.0 0.0 34.376317263855086" Properties=species:S:1:pos:R:3:initial_magmoms:R:1 pbc="T T T"
Si      -1.23725223      -1.16660835      -1.54146930       0.00000000
Si       0.60401365      -1.88302626       1.29860049       0.00000000
Si      -1.96844517       0.78775182       1.14009120       0.00000000
Si       1.55609899       1.56203181      -1.40829538       0.00000000
Si       2.63899303      -2.28472137       0.06538379       0.00000000
Si      -2.53932822      -2.55871917       0.05290518       0.00000000
Si       0.31335770      -2.36006262      -2.88307459       0.00000000
Si      -2.42296875       0.37766736      -2.88891856       0.00000000
Si      -2.53551636       2.87322273      -0.01956014       0.00000000
Si      -1.35022338       1.55598822       3.31260691       0.00000000
