10
Lattice="16.28999089631971 0.0 0.0 0.0 16.28999089631971 0.0 0.0 0.0 34.376317263855086" Properties=species:S:1:pos:R:3:initial_magmoms:R:1 pbc="T T T"
Si       2.31318000       0.24997005      -0.24310945       0.00000000
Si      -0.90953097       1.74604365      -1.30042243       0.00000000
Si      -0.55296079      -2.32448526      -0.08614710       0.00000000
Si      -0.60527450       0.84683565       2.15577444       0.00000000
Si      -2.53269494      -2.30855364      -1.28636251       0.00000000
Si      -2.74135355       2.44074699       0.10020702       0.00000000
Si       1.20725190       0.08004906       3.47654766       0.00000000
Si      -1.05669646       3.12148980       1.67735896       0.00000000
Si       3.22690239      -1.47776364       1.07491367       0.00000000
Si      -0.02539611       3.73587271      -0.34568844       0.00000000
