10
Lattice="16.28999089631971 0.0 0.0 0.0 16.28999089631971 0.0 0.0 0.0 34.376317263855086" Properties=species:S:1:pos:R:3:initial_magmoms:R:1 pbc="T T T"
Si      -0.68437548       0.02594997       2.21971442       0.00000000
Si       1.93989465       1.29122685      -0.37339577       0.00000000
Si      -1.81252640       0.76678659      -1.32077322       0.00000000
Si       0.42047748      -2.22964488      -0.77092372       0.00000000
Si       2.01965049      -1.55781270      -2.40163400       0.00000000
Si       3.40690689      -0.47009682      -0.84882050       0.00000000
Si      -1.20725190      -0.08004906      -3.47654766       0.00000000
Si      -2.31688272      -1.77603354       2.27732916       0.00000000
Si      -1.15699725       2.38264056       2.69971121       0.00000000
Si       1.10592810       0.16992099      -3.71965711       0.00000000
