10
Lattice="16.290000149 0.0 0.0 0.0 16.290000149 0.0 0.0 0.0 29.1751946751" Properties=species:S:1:pos:R:3:initial_magmoms:R:1 pbc="T T T"
Si      -1.34490404      -1.32926401       1.38137545       0.00000000
Si       1.36257706       1.36676359       1.36395786       0.00000000
Si      -1.38545800       1.33946155      -1.37224361       0.00000000
Si       1.38373777      -1.37138995      -1.35087862       0.00000000
Si       2.68244174       0.11363904      -2.62426675       0.00000000
Si      -2.67687056      -2.68882742       0.00342809       0.00000000
Si      -2.60690273      -0.14916753      -2.77019640       0.00000000
Si      -2.69897609       0.05910012       2.71135587       0.00000000
Si      -0.04064355       2.80189632      -2.60555961       0.00000000
Si       0.02520063      -2.67819005       2.74400291       0.00000000
