10
Lattice="16.290000149 0.0 0.0 0.0 16.290000149 0.0 0.0 0.0 29.1751946751" Properties=species:S:1:pos:R:3:initial_magmoms:R:1 pbc="T T T"
Si      -0.68450581       2.04954103       0.76981669       0.00000000
Si       2.05356629      -0.60839078       0.89646621       0.00000000
Si      -1.23893596      -1.79053329       0.84357158       0.00000000
Si      -0.63177508      -0.68218774      -2.14618567       0.00000000
Si      -0.67548115      -2.82708228      -1.16487800       0.00000000
H        0.69235759       2.30840542      -2.13221075       0.00000000
Si      -1.29674917       1.53267562       2.95194620       0.00000000
Si      -3.52214238       0.77918166      -0.77276338       0.00000000
Si       1.52234938      -1.85914677       2.82789327       0.00000000
Si       1.07957089       3.53658998       0.44220843       0.00000000
