10
Lattice="16.290000149 0.0 0.0 0.0 16.290000149 0.0 0.0 0.0 29.1751946751" Properties=species:S:1:pos:R:3:initial_magmoms:R:1 pbc="T T T"
Si      -1.40369302       1.42260571      -1.22147788       0.00000000
Si      -1.32480055      -1.38381922       1.37455720       0.00000000
Si       1.19988883      -1.47245311      -1.42818413       0.00000000
Si       1.31004181       1.44529768       1.36959159       0.00000000
H        3.22255299       1.73087768      -0.50651055       0.00000000
Si      -0.00860112       2.65896785      -2.63907141       0.00000000
Si       2.67312386      -2.68198562       0.02424459       0.00000000
Si       2.52758900      -0.13765050      -2.82570513       0.00000000
Si      -2.90432784       0.13914918      -2.51215931       0.00000000
Si       2.73929385       0.07882731       2.70185351       0.00000000
