10
Lattice="16.290000149 0.0 0.0 0.0 16.290000149 0.0 0.0 0.0 29.1751946751" Properties=species:S:1:pos:R:3:initial_magmoms:R:1 pbc="T T T"
Si       0.43965081      -0.24772203       2.28307510       0.00000000
Si      -1.71771536       1.63095481       0.10403874       0.00000000
Si      -0.04883742      -2.29429991      -0.66720753       0.00000000
Si       1.86844673       0.89845867      -1.27548116       0.00000000
H       -0.91595413       0.16061940      -2.54232646       0.00000000
Si       2.15407559      -2.67527414       0.13910733       0.00000000
Si      -0.32609322       3.37079199      -0.81200402       0.00000000
Si       2.07246269      -1.98273737       2.36811846       0.00000000
Si       3.46307484       1.71088985       0.28556681       0.00000000
Si      -3.77434416       0.62177302      -0.61793062       0.00000000
