10
Lattice="16.290000149 0.0 0.0 0.0 16.290000149 0.0 0.0 0.0 29.1751946751" Properties=species:S:1:pos:R:3:initial_magmoms:R:1 pbc="T T T"
Si       1.35023250      -1.33214734       1.37680661       0.00000000
Si      -1.27157330       1.36086661       1.42395373       0.00000000
Si       1.34604597       1.36230013      -1.36507818       0.00000000
Si      -1.37889638      -1.36133902      -1.33441505       0.00000000
Si       2.66165896       0.13413186       2.65867714       0.00000000
Si      -2.66316742       2.71555931       0.07360902       0.00000000
Si       0.01809982      -2.69611883      -2.68548914       0.00000000
Si      -2.68287832       0.01806561      -2.70941280       0.00000000
Si      -0.05823349      -2.62285455       2.77073906       0.00000000
Si       2.72414740       0.01808190      -2.72210401       0.00000000
