10
Lattice="16.290000149 0.0 0.0 0.0 16.290000149 0.0 0.0 0.0 29.1751946751" Properties=species:S:1:pos:R:3:initial_magmoms:R:1 pbc="T T T"
Si       1.25639884       1.37033110      -1.42515574       0.00000000
Si       1.37572309      -1.26421804       1.41672120       0.00000000
Si      -0.81021574      -1.85906369      -1.18063902       0.00000000
Si      -1.42653160       1.37559277       1.29310298       0.00000000
Si      -2.68338656      -2.66225843       0.01491144       0.00000000
Si      -0.05033610      -2.65636145       2.69706586       0.00000000
Si       2.66256794      -2.71357193       0.08958827       0.00000000
Si       2.64618020       2.74688499      -0.08228280       0.00000000
Si      -0.08255772       2.74408311       2.65671657       0.00000000
Si      -0.19670175       2.78601357      -2.64275332       0.00000000
