10
Lattice="16.290000149 0.0 0.0 0.0 16.290000149 0.0 0.0 0.0 29.1751946751" Properties=species:S:1:pos:R:3:initial_magmoms:R:1 pbc="T T T"
Si       1.34490404       1.32926401      -1.38137545       0.00000000
Si      -1.33196652      -1.35956341      -1.37794736       0.00000000
Si      -1.35407205       1.38836413       1.32998042       0.00000000
Si       1.37010467      -1.34892604       1.36262747       0.00000000
Si      -2.62645139      -2.67485060       0.09088073       0.00000000
Si       2.70748110       2.69602760      -0.01741759       0.00000000
Si      -2.69441327       0.03446964       2.71460599       0.00000000
Si      -0.04055396       2.66872556      -2.75361906       0.00000000
Si       0.01084751       2.71757927       2.70906270       0.00000000
Si       2.73121563       0.00421911       2.71623980       0.00000000
