10
Lattice="16.290000149 0.0 0.0 0.0 16.290000149 0.0 0.0 0.0 29.1751946751" Properties=species:S:1:pos:R:3:initial_magmoms:R:1 pbc="T T T"
Si      -1.48418191       1.80139709      -0.11798449       0.00000000
Si       1.13145454      -1.10732905      -1.75500466       0.00000000
Si      -1.66596203      -1.51936831       0.73183058       0.00000000
Si       1.86225653       0.84359395       1.25479595       0.00000000
H       -0.75300526       0.55273600       2.50203552       0.00000000
H       -1.40507767       0.97370218       2.45903128       0.00000000
Si       2.46808163      -2.52302780      -0.38050289       0.00000000
H        1.36003582       3.22683726      -0.94828135       0.00000000
H        0.79198723       3.32524515       1.37380157       0.00000000
Si       2.55363671       2.71256195      -0.15821708       0.00000000
