10
Lattice="16.290000149 0.0 0.0 0.0 16.290000149 0.0 0.0 0.0 29.1751946751" Properties=species:S:1:pos:R:3:initial_magmoms:R:1 pbc="T T T"
H       -0.89977816       0.74023390       0.98046159       0.00000000
Si       1.14919435       1.64157590      -1.18060343       0.00000000
Si       1.40524285      -1.17222841       1.45698005       0.00000000
Si      -1.59474214      -1.12829428      -1.33873298       0.00000000
Si      -1.97747570       2.45353466       1.77140608       0.00000000
Si      -0.61874308       2.80881957      -2.20348575       0.00000000
Si       2.61307892       0.42948585      -2.51834445       0.00000000
Si      -0.05273073      -2.35131491       2.87460567       0.00000000
Si      -2.22997070       2.96807061      -0.52314042       0.00000000
Si       2.86590136      -2.45218259       0.11229532       0.00000000
