10
Lattice="16.290000149 0.0 0.0 0.0 16.290000149 0.0 0.0 0.0 29.1751946751" Properties=species:S:1:pos:R:3:initial_magmoms:R:1 pbc="T T T"
Si      -0.92903500       1.04269033      -1.83360263       0.00000000
Si       1.07163766       1.76002049       1.06221049       0.00000000
Si       1.33332022      -1.54640971      -1.15694234       0.00000000
Si      -1.93893356      -1.02912076       0.89923785       0.00000000
H        0.51259743      -1.28233252       2.39440823       0.00000000
Si       0.69107068      -2.67019492       1.78447161       0.00000000
Si      -1.69885154      -1.00090648      -2.71696918       0.00000000
Si      -0.48060387      -2.86800277      -1.76043125       0.00000000
Si      -2.22456242       2.54461205      -0.51535064       0.00000000
Si      -1.20927187      -3.21916141       0.49927511       0.00000000
