10
Lattice="16.290000149 0.0 0.0 0.0 16.290000149 0.0 0.0 0.0 29.1751946751" Properties=species:S:1:pos:R:3:initial_magmoms:R:1 pbc="T T T"
Si       1.37956753      -1.45309896       1.14836484       0.00000000
Si      -1.23453646      -1.35707039      -1.44087534       0.00000000
Si       1.40846599       1.29070721      -1.39393245       0.00000000
Si      -1.22438720       1.28195948       1.60413973       0.00000000
H        1.60920766       1.50835790       2.11455976       0.00000000
Si       2.22180941       0.20123200       2.55195428       0.00000000
Si      -2.51108723       2.62943571       0.10120875       0.00000000
Si      -2.60201801      -2.64546182      -0.08478312       0.00000000
Si       0.05823349       2.62285455      -2.77073906       0.00000000
Si      -2.70431921      -0.07199854      -2.71965330       0.00000000
