10
Lattice="16.290000149 0.0 0.0 0.0 16.290000149 0.0 0.0 0.0 29.1751946751" Properties=species:S:1:pos:R:3:initial_magmoms:R:1 pbc="T T T"
Si       1.44472753      -1.19340541      -1.35784390       0.00000000
Si      -1.34481445      -1.46243476       1.23331600       0.00000000
Si      -1.35837261       1.24278040      -1.45523070       0.00000000
Si       1.42680853       1.35887923       1.27957327       0.00000000
Si      -2.70399341      -0.00449604       2.52109451       0.00000000
Si       0.08413785      -2.53664624      -2.69946523       0.00000000
Si       0.09783774       2.67325418       2.69909529       0.00000000
Si      -2.52862049       2.83413928      -0.16872132       0.00000000
Si       2.75496483      -0.03618009       2.65002845       0.00000000
Si       0.04064355      -2.80189632       2.60555961       0.00000000
