10
Lattice="16.290000149 0.0 0.0 0.0 16.290000149 0.0 0.0 0.0 29.1751946751" Properties=species:S:1:pos:R:3:initial_magmoms:R:1 pbc="T T T"
Si      -1.25358067       1.10790083      -1.60276849       0.00000000
Si      -1.89583022      -0.01588438       1.33864546       0.00000000
Si       1.57522672       1.68601664       0.44010781       0.00000000
Si       0.43329771      -2.28877597       0.31106593       0.00000000
H        1.85155400       0.60518654      -2.36607911       0.00000000
H       -2.07430346       1.37197802       1.94858208       0.00000000
Si      -1.06127722      -1.26077922       3.05169035       0.00000000
Si       2.04452534      -2.44802701      -1.36927941       0.00000000
Si       0.84525553       2.32065876       2.61891047       0.00000000
Si      -2.58690089       2.65431054      -0.44582615       0.00000000
