10
Lattice="16.290000149 0.0 0.0 0.0 16.290000149 0.0 0.0 0.0 29.1751946751" Properties=species:S:1:pos:R:3:initial_magmoms:R:1 pbc="T T T"
Si      -0.23073156       2.13469049       0.91152061       0.00000000
Si      -1.80595829      -0.76623274      -1.38669700       0.00000000
Si       0.33417306      -1.94919626       1.37406414       0.00000000
Si       2.12602421       0.58629340      -1.00024237       0.00000000
H        2.20512845      -0.24140151       1.57677340       0.00000000
H       -1.36896274       2.19973646       1.90878711       0.00000000
H        2.85720087      -0.66236770       1.61977763       0.00000000
Si       1.94424410      -2.73447201      -0.15042730       0.00000000
H       -1.05917581      -1.10687293       3.00454907       0.00000000
H        1.05437026      -1.87040153       2.69879303       0.00000000
