10
Lattice="16.290000149 0.0 0.0 0.0 16.290000149 0.0 0.0 0.0 29.1751946751" Properties=species:S:1:pos:R:3:initial_magmoms:R:1 pbc="T T T"
H       -0.90748333      -0.07115472       1.21748087       0.00000000
Si      -0.88475878       1.42188895      -1.59436604       0.00000000
Si       0.34417512      -2.12038787      -0.93211829       0.00000000
Si       1.87652657       1.35327547       0.38995565       0.00000000
H        1.00049923       0.35582247       2.46116107       0.00000000
H       -2.17219007      -1.83565496       0.78428758       0.00000000
Si       0.27567567       2.87800157       1.47054651       0.00000000
Si      -0.32130396       0.38533995      -3.60281562       0.00000000
Si      -1.71654248      -2.81605233      -1.83730788       0.00000000
Si       1.57087729      -3.44043174       0.58434997       0.00000000
