10
Lattice="16.290000149 0.0 0.0 0.0 16.290000149 0.0 0.0 0.0 29.1751946751" Properties=species:S:1:pos:R:3:initial_magmoms:R:1 pbc="T T T"
H       -1.13991557       0.96177790       0.29326906       0.00000000
H        1.51544405      -1.46970010      -0.62712081       0.00000000
Si       1.47903590       1.20365182      -1.38932277       0.00000000
Si       1.28976239       0.14973768       2.02557542       0.00000000
Si      -1.31815081      -1.69609853      -1.13754084       0.00000000
H       -2.29296250      -0.84673792       2.22166190       0.00000000
Si       2.12804580      -2.77682601      -0.18972629       0.00000000
Si       0.05002985       2.41603508      -2.77435679       0.00000000
Si      -2.60485084      -0.34862229      -2.64047182       0.00000000
Si       0.74855972       2.53004879       2.76119877       0.00000000
