10
Lattice="16.290000149 0.0 0.0 0.0 16.290000149 0.0 0.0 0.0 29.1751946751" Properties=species:S:1:pos:R:3:initial_magmoms:R:1 pbc="T T T"
Si      -0.51570557      -0.91173502      -2.09215321       0.00000000
Si       2.05662881       1.00918180       0.72196937       0.00000000
Si      -1.41469692       1.94847950       0.00580586       0.00000000
Si      -0.68105721      -1.76205674       1.50736561       0.00000000
H        1.45417573       1.56838492      -2.38154197       0.00000000
Si      -1.94432555      -0.33524820       2.83407199       0.00000000
H        2.85839004      -0.46115361      -1.92439584       0.00000000
Si       0.25658379       1.19940013      -3.26867211       0.00000000
Si       1.04920633       2.25010514       2.56394528       0.00000000
Si      -3.08452782       1.16603821       1.45199109       0.00000000
