10
Lattice="16.290000149 0.0 0.0 0.0 16.290000149 0.0 0.0 0.0 29.1751946751" Properties=species:S:1:pos:R:3:initial_magmoms:R:1 pbc="T T T"
Si      -1.35578250       1.40862889      -1.31381737       0.00000000
Si       1.17419950       1.46636065       1.45018514       0.00000000
Si      -1.48624586      -1.20031237       1.43579010       0.00000000
Si       1.00742248      -1.24092334      -1.84197592       0.00000000
Si      -2.46390325      -0.30162564      -2.55813942       0.00000000
Si      -1.04920633      -2.25010514      -2.56394528       0.00000000
Si       2.39904461       0.49891383      -2.75801868       0.00000000
Si      -0.12712716      -2.54031149       2.81578848       0.00000000
Si       2.54847278       0.11505627       2.81080244       0.00000000
Si       2.47290347       2.95138965       0.17679701       0.00000000
