10
Lattice="16.290000149 0.0 0.0 0.0 16.290000149 0.0 0.0 0.0 29.1751946751" Properties=species:S:1:pos:R:3:initial_magmoms:R:1 pbc="T T T"
Si      -0.73189342       1.33242427      -1.78896459       0.00000000
Si       1.99770788      -0.87732402      -0.97436398       0.00000000
Si      -0.61893856       1.06994350       2.04693166       0.00000000
Si      -1.51583338      -1.85115326      -0.07398829       0.00000000
H        2.47041110       1.38135943       1.03245179       0.00000000
H        1.27115758      -0.75830439       2.77820791       0.00000000
Si       0.78174082      -2.00352308      -2.66214899       0.00000000
Si      -2.48982878       2.29382750      -0.52824607       0.00000000
Si      -0.64019701      -0.38569833      -3.59948964       0.00000000
Si       2.57401550      -2.62184294       0.54289202       0.00000000
