10
Lattice="16.290000149 0.0 0.0 0.0 16.290000149 0.0 0.0 0.0 29.1751946751" Properties=species:S:1:pos:R:3:initial_magmoms:R:1 pbc="T T T"
Si       1.37562535      -1.34604434       1.33666154       0.00000000
Si       1.36332640       1.34817507      -1.35046141       0.00000000
Si      -1.35073423      -1.36824761      -1.35232862       0.00000000
Si      -1.35024553       1.35027648       1.37196353       0.00000000
Si       0.02433726      -2.70267555       2.67230196       0.00000000
Si       0.00047241       2.71361918      -2.68642275       0.00000000
Si      -2.73354348      -0.00955571      -2.67486937       0.00000000
Si      -2.71937117       2.69425037       0.00773143       0.00000000
Si       2.72385092       2.69133446       0.01260368       0.00000000
Si       2.72543105      -0.01404687      -2.69645902       0.00000000
