10
Lattice="16.290000149 0.0 0.0 0.0 16.290000149 0.0 0.0 0.0 29.1751946751" Properties=species:S:1:pos:R:3:initial_magmoms:R:1 pbc="T T T"
Si       1.35911870      -1.33999912       1.37999838       0.00000000
Si      -1.50728602      -1.38504097      -1.16566339       0.00000000
Si      -1.40016298       1.34923555       1.36870174       0.00000000
Si       1.48624586       1.20031237      -1.43579010       0.00000000
Si      -2.64748829       0.11624544      -2.54774430       0.00000000
Si      -0.24401769      -2.81184951      -2.49236978       0.00000000
Si       2.66044536       2.66667302       0.01439504       0.00000000
Si       0.13046335       2.60894126      -2.74960747       0.00000000
Si      -0.01434660      -2.70163136       2.74131004       0.00000000
Si       2.68017255       0.00009774       2.77404461       0.00000000
