10
Lattice="16.290000149 0.0 0.0 0.0 16.290000149 0.0 0.0 0.0 29.1751946751" Properties=species:S:1:pos:R:3:initial_magmoms:R:1 pbc="T T T"
Si      -1.35975889       1.35237952       1.35262038       0.00000000
Si      -1.36052452      -1.34315938      -1.36306510       0.00000000
Si       1.32326929      -1.36513459       1.39294049       0.00000000
Si       1.35408997       1.37769418      -1.35781356       0.00000000
Si       2.69560406       0.02063943       2.70066025       0.00000000
Si       2.69395877      -2.70453098       0.02634520       0.00000000
Si       0.01451439       2.71762814       2.68330100       0.00000000
Si       0.00158013      -2.70538132      -2.70906270       0.00000000
Si      -2.72385092      -2.69133446      -0.01260368       0.00000000
Si      -2.71464707       2.70309746      -0.01677574       0.00000000
