10
Lattice="16.290000149 0.0 0.0 0.0 16.290000149 0.0 0.0 0.0 29.1751946751" Properties=species:S:1:pos:R:3:initial_magmoms:R:1 pbc="T T T"
Si       1.44528139      -0.28144233      -0.43856153       0.00000000
Si      -1.97802956       0.10037898       1.05914709       0.00000000
Si      -1.22003956       1.97180678      -0.22319024       0.00000000
Si       0.65508607       2.67626783       1.05760081       0.00000000
Si       1.09253773      -0.04088790      -2.80038106       0.00000000
Si      -0.58347523       1.63940932      -2.55230438       0.00000000
Si      -0.95451256      -1.23546619       2.67729091       0.00000000
Si       1.89571619      -2.41606766       0.44932717       0.00000000
Si       2.66178602       1.31010697       0.97669799       0.00000000
H        1.62989596       2.42778017      -1.40650696       0.00000000
