10
Lattice="16.290000149 0.0 0.0 0.0 16.290000149 0.0 0.0 0.0 29.1751946751" Properties=species:S:1:pos:R:3:initial_magmoms:R:1 pbc="T T T"
Si      -1.33008096       1.40934565      -1.31011212       0.00000000
Si       1.33599748       1.37668420       1.34378029       0.00000000
Si       1.35022028      -1.32623407      -1.40633191       0.00000000
Si      -1.38481536      -1.33191928       1.36749972       0.00000000
Si      -2.72092117       0.06473646      -2.58477637       0.00000000
Si       2.64472795      -2.67973760       0.02456551       0.00000000
Si       2.67997951       0.01839141       2.70562003       0.00000000
Si       2.66647510       2.73527022      -0.03836538       0.00000000
Si      -0.05214673       2.73720873       2.66658362       0.00000000
Si      -2.75429938      -2.68001453       0.03060478       0.00000000
