10
Lattice="16.290000149 0.0 0.0 0.0 16.290000149 0.0 0.0 0.0 29.1751946751" Properties=species:S:1:pos:R:3:initial_magmoms:R:1 pbc="T T T"
Si      -1.35128809      -1.35663121       1.33564041       0.00000000
Si      -1.37562535       1.34604434      -1.33666154       0.00000000
Si       1.30649059       1.31285998       1.44755646       0.00000000
Si       1.35106003      -1.38476404      -1.33917061       0.00000000
Si       2.67149486       2.67224420       0.06888263       0.00000000
Si       0.04479750      -2.80741863       2.53065639       0.00000000
Si      -0.01229895       2.69421941      -2.68712296       0.00000000
Si       2.71031393      -0.02114442      -2.68117122       0.00000000
Si      -2.72635958      -0.02220327      -2.68899017       0.00000000
Si      -2.72587088       2.69632082       0.03530199       0.00000000
