10
Lattice="16.290000149 0.0 0.0 0.0 16.290000149 0.0 0.0 0.0 29.1751946751" Properties=species:S:1:pos:R:3:initial_magmoms:R:1 pbc="T T T"
Si       1.35031069      -1.35537688      -1.33059310       0.00000000
Si      -1.17182116      -1.53034777       1.32146127       0.00000000
Si       1.55103607       1.30504078       1.18675939       0.00000000
Si      -1.02236693       1.54194625      -1.48670957       0.00000000
H        2.70337439      -0.77696785      -1.04400517       0.00000000
Si       0.14608872       2.48722238       2.65926064       0.00000000
Si      -1.39906015      -3.38921598      -0.10698544       0.00000000
Si       2.33784308       2.80163893      -0.52118568       0.00000000
Si       0.90665254      -3.56493621      -0.71546330       0.00000000
Si      -2.63570573      -0.31825773       2.65920229       0.00000000
