10
Lattice="16.290000149 0.0 0.0 0.0 16.290000149 0.0 0.0 0.0 29.1751946751" Properties=species:S:1:pos:R:3:initial_magmoms:R:1 pbc="T T T"
Si      -1.61122762       0.15925104       1.68034534       0.00000000
Si       0.83859292       1.92623876      -1.02524552       0.00000000
Si       1.76793743      -1.16724367       1.02288233       0.00000000
Si      -1.58602699      -0.77216230      -1.57193031       0.00000000
H       -0.19297134       3.05321355      -0.99679970       0.00000000
Si      -2.04452534       2.44802701       1.36927941       0.00000000
Si       1.10988658       1.18967500      -3.23211559       0.00000000
Si       0.61874308      -2.80881957       2.20348575       0.00000000
Si      -2.48557709      -2.62677881      -0.42213589       0.00000000
Si      -0.44352783      -0.64441612      -3.62093341       0.00000000
