10
Lattice="16.290000149 0.0 0.0 0.0 16.290000149 0.0 0.0 0.0 29.1751946751" Properties=species:S:1:pos:R:3:initial_magmoms:R:1 pbc="T T T"
Si       0.28532587      -0.81819784      -2.15706802       0.00000000
Si      -2.27138965       0.49671468      -0.10908605       0.00000000
Si       1.29027227       1.98095687       0.12168974       0.00000000
Si       1.02236693      -1.54194625       1.48670957       0.00000000
Si      -2.54268332       1.23327844       2.09778402       0.00000000
Si       3.36021001       1.25969268       0.96552389       0.00000000
Si       2.57340300      -0.23690547       2.67346896       0.00000000
Si       2.37267762      -2.89732314       0.15611647       0.00000000
Si       1.20377237       0.91549801      -3.43450392       0.00000000
Si       1.92471890      -2.48018510      -2.06677079       0.00000000
