10
Lattice="16.290000149 0.0 0.0 0.0 16.290000149 0.0 0.0 0.0 29.1751946751" Properties=species:S:1:pos:R:3:initial_magmoms:R:1 pbc="T T T"
Si       0.92903500      -1.04269033       1.83360263       0.00000000
Si      -0.76981654      -2.04359681      -0.88336654       0.00000000
Si      -1.29552742       1.50192172       1.31825200       0.00000000
Si       1.98979094       0.60176890      -1.16995448       0.00000000
H       -0.25868520       2.68016114      -1.44741058       0.00000000
Si      -0.15757317      -1.52673139      -3.06549605       0.00000000
Si       2.26235522      -2.58910004       0.67666029       0.00000000
Si      -1.00989856      -2.07181109       2.73284049       0.00000000
Si       2.00067266       0.71733016       2.89581312       0.00000000
Si       0.29910069       2.31435290       2.87929996       0.00000000
