10
Lattice="16.290000149 0.0 0.0 0.0 16.290000149 0.0 0.0 0.0 29.1751946751" Properties=species:S:1:pos:R:3:initial_magmoms:R:1 pbc="T T T"
Si      -1.36606312      -1.35122293       1.34941694       0.00000000
Si       1.30548061       1.29406132       1.47551213       0.00000000
Si      -1.37314927       1.41141448      -1.30297586       0.00000000
Si       1.36267480      -1.34842105      -1.38958243       0.00000000
Si       2.66017331       2.63542880       0.16121629       0.00000000
Si       2.71300178      -2.71057457      -0.01485893       0.00000000
Si      -2.72776052       0.02292003       2.69856547       0.00000000
Si      -0.01314603      -2.66980070       2.75601142       0.00000000
Si      -2.71003700      -2.71971326      -0.01419665       0.00000000
Si      -2.78560632       0.11662011      -2.64820208       0.00000000
