10
Lattice="16.290000149 0.0 0.0 0.0 16.290000149 0.0 0.0 0.0 29.1751946751" Properties=species:S:1:pos:R:3:initial_magmoms:R:1 pbc="T T T"
H       -0.87501736       0.85265119      -0.89774992       0.00000000
Si       1.02661210      -1.48628332      -1.47352238       0.00000000
Si      -1.39509190      -1.23636214       1.41759353       0.00000000
Si       1.90096157       1.29974653       0.62895885       0.00000000
Si       1.92616220       0.36833319      -2.62331680       0.00000000
Si       0.00100998       1.85010419      -2.96895534       0.00000000
H       -2.78299992       0.42567399      -2.14143011       0.00000000
Si       2.15345657       0.78521059       2.92350534       0.00000000
Si       0.00860112      -2.65896785       2.63907141       0.00000000
Si       2.53619012      -2.79661836      -0.18663372       0.00000000
