10
Lattice="16.290000149 0.0 0.0 0.0 16.290000149 0.0 0.0 0.0 29.1751946751" Properties=species:S:1:pos:R:3:initial_magmoms:R:1 pbc="T T T"
Si      -1.34457661      -1.34105635      -1.39267792       0.00000000
Si       1.31041648       1.34260878      -1.42579176       0.00000000
Si       1.43130457      -1.36180817       1.29339473       0.00000000
Si      -1.41744178       1.35904539       1.33572794       0.00000000
Si       0.08750988      -2.64324475       2.67238948       0.00000000
Si      -2.69781136      -2.68225930      -0.02946695       0.00000000
Si       2.60451038       2.78054338      -0.11457099       0.00000000
Si       2.68074758      -0.04014996       2.76359114       0.00000000
Si      -0.10601532       2.82532459       2.61759847       0.00000000
Si       0.00907353      -2.70890974      -2.75022890       0.00000000
