10
Lattice="16.290000149 0.0 0.0 0.0 16.290000149 0.0 0.0 0.0 29.1751946751" Properties=species:S:1:pos:R:3:initial_magmoms:R:1 pbc="T T T"
H        0.90272665      -0.89751385       0.81416298       0.00000000
Si       1.35096229       1.29986056      -1.39623729       0.00000000
Si      -1.14709294       1.42472341       1.46441972       0.00000000
Si      -1.31142646      -1.46627920      -1.28187053       0.00000000
H       -1.11068479      -1.24862851       2.22662168       0.00000000
Si      -2.57609899       2.63710667       0.07938570       0.00000000
Si      -0.49808304      -2.55575441       2.66401620       0.00000000
Si      -2.66165896      -0.13413186      -2.65867714       0.00000000
Si      -0.00283446       2.65593791      -2.70051437       0.00000000
Si       2.74023867       2.65204460      -0.10695626       0.00000000
