10
Lattice="16.290000149 0.0 0.0 0.0 16.290000149 0.0 0.0 0.0 29.1751946751" Properties=species:S:1:pos:R:3:initial_magmoms:R:1 pbc="T T T"
Si      -1.35397594      -1.34498386       1.37511445       0.00000000
Si       1.33595920       1.35048988       1.39378658       0.00000000
Si      -1.37771047       1.34682463      -1.35854294       0.00000000
Si       1.36169740      -1.37414296      -1.34914853       0.00000000
Si       2.71461449      -2.69272073       0.05744596       0.00000000
Si       2.69829191       2.71336016       0.06506068       0.00000000
Si      -2.71508690      -2.69812901       0.02150212       0.00000000
Si      -0.02596626       2.74577727      -2.67803196       0.00000000
Si       2.72776052      -0.02292003      -2.69856547       0.00000000
Si      -2.72826551       2.71648784      -0.00011670       0.00000000
