10
Lattice="16.290000149 0.0 0.0 0.0 16.290000149 0.0 0.0 0.0 29.1751946751" Properties=species:S:1:pos:R:3:initial_magmoms:R:1 pbc="T T T"
Si      -0.84624922       1.84370222      -1.12689189       0.00000000
Si       1.71765020      -0.44266446      -1.52259506       0.00000000
Si       1.37925802       1.02656323       1.63296482       0.00000000
Si      -1.39162213      -1.73983718       0.91604276       0.00000000
H        1.11783610      -0.53056530      -2.92338368       0.00000000
H       -1.99407521      -1.18063405      -2.18746857       0.00000000
Si       2.19453995      -2.47233332      -0.46347714       0.00000000
Si       0.32609322      -3.37079199       0.81200402       0.00000000
Si       2.64261269       2.51040305       0.30671882       0.00000000
Si      -2.56508858       2.60408684       0.25405760       0.00000000
