10
Lattice="16.290000149 0.0 0.0 0.0 16.290000149 0.0 0.0 0.0 29.1751946751" Properties=species:S:1:pos:R:3:initial_magmoms:R:1 pbc="T T T"
Si       1.18346851       0.53605503       1.05083216       0.00000000
Si      -1.29531565      -0.55104184      -0.92103172       0.00000000
Si      -0.06700077      -2.40355694      -1.58672214       0.00000000
Si      -0.35368848       1.80830405       2.24789040       0.00000000
Si       2.85329941       1.31849632      -0.39535306       0.00000000
Si      -3.08301285      -1.13788909       0.51885166       0.00000000
Si       2.32367078      -0.96523138       2.43291307       0.00000000
Si      -2.31883265       0.78480334      -2.53917554       0.00000000
Si      -1.82692352       3.01783656       0.79546168       0.00000000
H       -0.34080309       0.68442436      -3.59832264       0.00000000
