10
Lattice="16.290000149 0.0 0.0 0.0 16.290000149 0.0 0.0 0.0 29.1751946751" Properties=species:S:1:pos:R:3:initial_magmoms:R:1 pbc="T T T"
Si      -1.02661210       1.48628332       1.47352238       0.00000000
Si       0.89955010       1.85461652      -1.14979442       0.00000000
Si      -1.33125139      -1.45731970      -1.30103863       0.00000000
Si       1.50957802      -1.31033503       1.28688866       0.00000000
H       -1.90162946       2.33893451       0.57577247       0.00000000
H        2.77441509      -1.01652859      -1.30894511       0.00000000
Si       2.32308434      -2.30228201      -0.65177385       0.00000000
Si       0.87434947       2.78602986       2.10248123       0.00000000
Si       0.44795871      -3.00674307      -1.93256490       0.00000000
Si       2.48557709       2.62677881       0.42213589       0.00000000
