10
Lattice="16.290000149 0.0 0.0 0.0 16.290000149 0.0 0.0 0.0 29.1751946751" Properties=species:S:1:pos:R:3:initial_magmoms:R:1 pbc="T T T"
Si       2.20291301      -0.38097423       0.80631486       0.00000000
Si       0.04883742       2.29429991       0.66720753       0.00000000
Si       0.14343345      -0.41829462      -2.35887284       0.00000000
Si      -1.52140456      -1.37383345       1.28172465       0.00000000
H       -2.16290477      -0.21895389      -1.44029184       0.00000000
H       -0.86711671       2.45491931      -1.87511894       0.00000000
Si       0.48848823       2.04657788       2.95028263       0.00000000
Si      -0.71597809       1.65967409      -3.15185463       0.00000000
Si       2.12130011       0.31156254       3.03532599       0.00000000
Si       2.44299503      -0.35275995      -2.80989217       0.00000000
