10
Lattice="16.290000149 0.0 0.0 0.0 16.290000149 0.0 0.0 0.0 29.1751946751" Properties=species:S:1:pos:R:3:initial_magmoms:R:1 pbc="T T T"
H        0.42487741      -1.08706429      -1.10719864       0.00000000
Si       1.96690349       0.82530028       0.93211829       0.00000000
Si      -1.17840232      -1.48965535       1.37493940       0.00000000
Si      -1.09623556       1.36663327      -1.57846556       0.00000000
Si       1.76078449      -1.67524733      -1.85434620       0.00000000
Si      -2.14322645       0.30612168       2.59128244       0.00000000
H       -2.93922102      -0.97933852      -1.77863657       0.00000000
Si      -2.38208672       2.75853266      -0.22494075       0.00000000
Si      -2.30436713      -0.16272081      -2.86765906       0.00000000
Si      -0.58981204       2.14021280       2.98010026       0.00000000
