10
Lattice="16.290000149 0.0 0.0 0.0 16.290000149 0.0 0.0 0.0 29.1751946751" Properties=species:S:1:pos:R:3:initial_magmoms:R:1 pbc="T T T"
Si      -1.34333857      -1.32657616      -1.40825747       0.00000000
Si      -1.37894851       1.35946567       1.35842624       0.00000000
Si       1.39159411      -1.35469270       1.35034471       0.00000000
Si       1.35379675       1.31354416      -1.42757145       0.00000000
Si      -2.68423364      -2.67320531      -0.03635229       0.00000000
Si       2.66316742      -2.71555931      -0.07360902       0.00000000
Si      -2.70989039       2.66999618      -0.08694208       0.00000000
Si       0.03489318       2.72362286       2.68026678       0.00000000
Si       2.74872738       0.05567922       2.66445383       0.00000000
Si       2.76597849       2.66771558      -0.13656909       0.00000000
