10
Lattice="16.290000149 0.0 0.0 0.0 16.290000149 0.0 0.0 0.0 29.1751946751" Properties=species:S:1:pos:R:3:initial_magmoms:R:1 pbc="T T T"
Si       1.35975889      -1.35237952      -1.35262038       0.00000000
Si       1.37427328       1.36524862       1.33068063       0.00000000
Si      -1.35488818       1.35071794      -1.36939611       0.00000000
Si      -1.35361756      -1.34757397       1.37406414       0.00000000
Si       0.00483813       2.72539848       2.65447591       0.00000000
Si       2.68302818      -2.71751411       0.04032012       0.00000000
Si      -2.72194499       0.04127886       2.68496399       0.00000000
Si      -2.71433756      -2.69343749       0.00673947       0.00000000
Si      -0.00076563      -2.69553890      -2.71568547       0.00000000
Si       2.71384886       0.02531466      -2.71043394       0.00000000
