10
Lattice="16.290000149 0.0 0.0 0.0 16.290000149 0.0 0.0 0.0 29.1751946751" Properties=species:S:1:pos:R:3:initial_magmoms:R:1 pbc="T T T"
Si      -1.21503853      -1.32553360       1.49458687       0.00000000
Si       1.53929098       0.71522875       1.60816591       0.00000000
Si       0.61893856      -1.06994350      -2.04693166       0.00000000
Si      -1.48760281       1.86533534      -0.35202790       0.00000000
H        1.89009614      -1.82824789       0.73127625       0.00000000
H        3.08934966       0.31141593      -1.01447987       0.00000000
Si      -1.87089023       1.22388400      -2.57517773       0.00000000
Si       0.31097610       2.56774385       2.27385632       0.00000000
Si       3.16120485       1.38714238       0.04589258       0.00000000
Si      -2.54835875       0.22087611       2.65152922       0.00000000
