10
Lattice="16.290000149 0.0 0.0 0.0 16.290000149 0.0 0.0 0.0 29.1751946751" Properties=species:S:1:pos:R:3:initial_magmoms:R:1 pbc="T T T"
H        1.19759194       0.36898479       0.88713014       0.00000000
Si       0.83491138       1.49478670      -1.63419018       0.00000000
Si      -0.77228936      -2.11113515       1.17651890       0.00000000
Si       0.54120267      -2.38031111      -0.73562336       0.00000000
Si      -2.20359719       1.42511437       1.04820639       0.00000000
H        2.60180624      -1.66055375       1.34427627       0.00000000
Si      -3.42010182      -0.16643493      -0.36705312       0.00000000
H       -1.88847528      -1.56827089      -2.46792972       0.00000000
Si      -0.25658379      -1.19940013       3.26867211       0.00000000
Si       1.26249130       3.30641391      -0.14876432       0.00000000
