10
Lattice="16.290000149 0.0 0.0 0.0 16.290000149 0.0 0.0 0.0 29.1751946751" Properties=species:S:1:pos:R:3:initial_magmoms:R:1 pbc="T T T"
Si       1.34144730      -1.35957970       1.35985582       0.00000000
Si      -1.35337484      -1.35167905      -1.36020593       0.00000000
Si      -1.32685873       1.34900749       1.39489523       0.00000000
Si       1.35829116       1.35368272      -1.36035180       0.00000000
Si       2.69558615       0.02625948       2.68050019       0.00000000
Si      -2.67165939       2.70835913       0.02917519       0.00000000
Si       0.03476938      -2.71220357      -2.68300925       0.00000000
Si      -2.69187528      -2.70863606       0.02013088       0.00000000
Si      -2.69927094       0.02977812      -2.71317640       0.00000000
Si       2.69993558       2.71573850       0.00425958       0.00000000
