10
Lattice="16.290000149 0.0 0.0 0.0 16.290000149 0.0 0.0 0.0 29.1751946751" Properties=species:S:1:pos:R:3:initial_magmoms:R:1 pbc="T T T"
Si      -1.34776945       1.34467435      -1.36394035       0.00000000
Si      -1.35418771      -1.37176462       1.34509318       0.00000000
Si       1.34306164      -1.30360726      -1.42307847       0.00000000
Si       1.35747829       1.34702011       1.36825828       0.00000000
Si      -2.77136886      -0.11490966      -2.58744299       0.00000000
Si       0.11235213       2.78229488      -2.57770722       0.00000000
Si      -2.70109379       2.67379175       0.03708167       0.00000000
Si       2.69143382      -2.68825727      -0.06123873       0.00000000
Si      -2.70793559      -0.01819593       2.71014218       0.00000000
Si       0.00768888      -2.71109585       2.71002548       0.00000000
