10
Lattice="16.290000149 0.0 0.0 0.0 16.290000149 0.0 0.0 0.0 29.1751946751" Properties=species:S:1:pos:R:3:initial_magmoms:R:1 pbc="T T T"
Si      -1.36757809      -1.34478838       1.34173803       0.00000000
Si      -1.38355858       1.34532595      -1.33520278       0.00000000
Si       1.34877943      -1.36552555      -1.35539202       0.00000000
Si       1.36669843       1.36155079       1.35294130       0.00000000
Si       0.00268785       2.70573644      -2.63886718       0.00000000
Si       0.00325800      -2.70343955       2.66459970       0.00000000
Si       2.71111214      -0.00265527      -2.68411791       0.00000000
Si      -2.70922250      -2.70684416      -0.02287335       0.00000000
Si      -2.68525991       0.01891269       2.73184853       0.00000000
Si      -2.70154991       2.71590140       0.05277793       0.00000000
