10
Lattice="16.290000149 0.0 0.0 0.0 16.290000149 0.0 0.0 0.0 29.1751946751" Properties=species:S:1:pos:R:3:initial_magmoms:R:1 pbc="T T T"
Si       1.37559277       1.35663121      -1.33173094       0.00000000
Si       1.37748241      -1.33972219       1.34809822       0.00000000
Si      -1.32147739       1.36800163       1.38290423       0.00000000
Si      -1.36669843      -1.36155079      -1.35294130       0.00000000
Si      -0.00669519      -2.70576902       2.65441756       0.00000000
Si      -0.00721647       2.71532311      -2.65427169       0.00000000
Si       2.72523557      -0.02055798      -2.68041266       0.00000000
Si      -2.68459202       0.01868463       2.73412419       0.00000000
Si      -2.71042796       2.71638522       0.04930608       0.00000000
Si      -0.01791900      -2.72707634      -2.70833332       0.00000000
