10
Lattice="16.290000149 0.0 0.0 0.0 16.290000149 0.0 0.0 0.0 29.1751946751" Properties=species:S:1:pos:R:3:initial_magmoms:R:1 pbc="T T T"
Si      -1.33384150      -1.44990775       1.25701326       0.00000000
Si       1.34385985      -1.36544410      -1.35110327       0.00000000
Si      -1.38725641       1.34234488      -1.34672699       0.00000000
Si       1.25768575       1.36663327       1.45730097       0.00000000
Si      -2.69351894      -0.08030970       2.52310001       0.00000000
Si       2.63638991       2.69413796       0.06675285       0.00000000
Si      -0.02800251       2.70596450      -2.68872759       0.00000000
Si       2.69149641      -0.01138671      -2.70807075       0.00000000
Si       2.68866052      -2.72479574       0.01461677       0.00000000
Si      -0.02715543      -2.71296920      -2.70681621       0.00000000
