10
Lattice="16.290000149 0.0 0.0 0.0 16.290000149 0.0 0.0 0.0 29.1751946751" Properties=species:S:1:pos:R:3:initial_magmoms:R:1 pbc="T T T"
Si      -1.46388457       1.21209004       1.33774103       0.00000000
Si       1.17182116       1.53034777      -1.32146127       0.00000000
Si      -0.22723899      -1.85886821      -1.42844671       0.00000000
Si       1.44256096      -1.18729666       1.44049606       0.00000000
H       -2.94298401      -1.26397369      -1.41622230       0.00000000
Si       2.07847370      -2.03458844      -2.03692457       0.00000000
Si      -2.61307892      -0.42948585       2.51834445       0.00000000
Si       2.52213185       0.17497089      -2.65205437       0.00000000
Si       3.16140033      -1.94768129       0.05954657       0.00000000
Si       0.00005050       2.59212998       2.68473059       0.00000000
