10
Lattice="16.290000149 0.0 0.0 0.0 16.290000149 0.0 0.0 0.0 29.1751946751" Properties=species:S:1:pos:R:3:initial_magmoms:R:1 pbc="T T T"
Si      -0.38328741      -0.64145134      -2.22314983       0.00000000
Si      -1.98979094      -0.60176890       1.16995448       0.00000000
Si       0.77506192       2.03825369       1.00774040       0.00000000
Si       1.48760281      -1.86533534       0.35202790       0.00000000
H       -2.24847614       2.07839225      -0.27745610       0.00000000
Si       1.79857892       0.70240852       2.62588422       0.00000000
H        2.75309148       1.93787471      -0.05140669       0.00000000
Si      -2.14736411      -2.12850029      -1.89554157       0.00000000
H       -0.44564553       3.28642608      -1.35647150       0.00000000
Si      -1.06075594      -1.64445922       3.00355712       0.00000000
