10
Lattice="16.290000149 0.0 0.0 0.0 16.290000149 0.0 0.0 0.0 29.1751946751" Properties=species:S:1:pos:R:3:initial_magmoms:R:1 pbc="T T T"
Si       1.33190299       1.33882624      -1.38946865       0.00000000
Si      -1.39590640       1.47391921       1.21637222       0.00000000
Si       1.59772321      -1.30634398       1.21112068       0.00000000
Si      -1.50034159      -1.34726446      -1.29995915       0.00000000
Si      -1.68961511      -2.40117860       2.11493904       0.00000000
Si      -2.23081778      -0.02086749       2.85056240       0.00000000
Si       2.38699001      -0.11994327      -2.87133513       0.00000000
Si       3.47203434       0.15586272       1.37129250       0.00000000
Si       3.13786128       2.10505898      -0.00277164       0.00000000
H        2.07868547       0.99818605       3.00177743       0.00000000
