10
Lattice="16.290000149 0.0 0.0 0.0 16.290000149 0.0 0.0 0.0 29.1751946751" Properties=species:S:1:pos:R:3:initial_magmoms:R:1 pbc="T T T"
Si      -1.25118604       1.34307793       1.48637260       0.00000000
Si       1.35637057      -1.38670809       1.39819203       0.00000000
Si      -1.44559090      -1.44212113      -1.27516023       0.00000000
Si       1.52140456       1.37383345      -1.28172465       0.00000000
H       -0.64150021       1.15487956      -2.72201649       0.00000000
Si      -0.04064355      -2.62430273      -2.74766148       0.00000000
Si      -2.58636821      -0.06355706       2.83950791       0.00000000
Si      -2.88515939       2.52784964       0.27491786       0.00000000
Si       0.13672197       2.61721658       2.86410844       0.00000000
Si       3.72431757       0.99285922      -0.47540980       0.00000000
