10
Lattice="16.28999089631971 0.0 0.0 0.0 16.28999089631971 0.0 0.0 0.0 34.45770212530097" Properties=species:S:1:pos:R:3:initial_magmoms:R:1 pbc="T T T"
Si      -0.33814782       2.21819301       0.60945372       0.00000000
Si       0.42083586       0.37667367      -2.33003112       0.00000000
Si       2.22702219      -0.52655796       0.73677500       0.00000000
Si      -1.68559146      -1.58480523       0.65886609       0.00000000
Si       1.68337602       3.16214705      -0.27962441       0.00000000
Si       1.73773575      -1.55009124      -2.77525934       0.00000000
Si      -0.92080854      -3.56068449      -0.42069432       0.00000000
Si      -1.79153510       0.45036963      -3.24491808       0.00000000
Si      -2.45020008       2.85652743      -0.38241179       0.00000000
Si      -0.43269498       1.99036107       3.19505776       0.00000000
