10
Lattice="16.28999089631971 0.0 0.0 0.0 16.28999089631971 0.0 0.0 0.0 34.45770212530097" Properties=species:S:1:pos:R:3:initial_magmoms:R:1 pbc="T T T"
Si      -1.23395447      -0.95071698       1.84111537       0.00000000
Si       0.26057484       2.21581467      -1.17690347       0.00000000
Si      -1.04691269      -2.01311820      -1.15340331       0.00000000
Si       1.45104804       1.61135793       1.87389156       0.00000000
Si      -2.97311138      -1.95760188       0.48885169       0.00000000
Si       2.15225109       3.31913704       0.37658844       0.00000000
Si      -0.99232164      -1.35935163      -3.71309514       0.00000000
Si       0.08819406      -2.47609629       3.29160626       0.00000000
Si      -2.61996047       0.23806206       3.31928960       0.00000000
Si      -1.65716052       3.72375621      -1.21391107       0.00000000
