10
Lattice="16.28999089631971 0.0 0.0 0.0 16.28999089631971 0.0 0.0 0.0 34.45770212530097" Properties=species:S:1:pos:R:3:initial_magmoms:R:1 pbc="T T T"
Si      -1.35749457      -1.35714583      -1.35560122       0.00000000
Si       1.35757602       1.35739194      -1.35532556       0.00000000
Si       1.36003581      -1.35555184       1.35853012       0.00000000
Si      -1.35902583       1.35638196       1.36321637       0.00000000
Si      -0.00022806      -2.71449622      -2.71240845       0.00000000
Si      -2.71480343      -0.00007982      -2.71268412       0.00000000
Si      -2.70808707       0.00371412       2.72005807       0.00000000
Si      -0.00021177       2.71524489      -2.71295978       0.00000000
Si       2.71536381      -0.00008959      -2.71292532       0.00000000
Si      -2.71486859       2.71410459       0.00230867       0.00000000
