10
Lattice="16.28999089631971 0.0 0.0 0.0 16.28999089631971 0.0 0.0 0.0 34.45770212530097" Properties=species:S:1:pos:R:3:initial_magmoms:R:1 pbc="T T T"
Si      -0.73350612      -1.48931651       1.68729124       0.00000000
Si       1.68041124       1.49410251       0.86733530       0.00000000
Si       0.74425752      -1.79742231      -1.47024206       0.00000000
Si      -1.87199304       1.62070839      -0.59539497       0.00000000
Si       0.15486903      -0.79061886      -3.40917804       0.00000000
Si       0.57314736       2.77477344       2.54074009       0.00000000
Si       0.48728277      -0.96775469       3.68397837       0.00000000
Si      -0.32464341      -3.71859065       0.95003384       0.00000000
Si      -3.80333123       0.51860844       0.32317897       0.00000000
Si      -3.09608554      -1.40058977       1.85968322       0.00000000
