10
Lattice="16.28999089631971 0.0 0.0 0.0 16.28999089631971 0.0 0.0 0.0 34.45770212530097" Properties=species:S:1:pos:R:3:initial_magmoms:R:1 pbc="T T T"
Si      -1.01846709      -1.82125458      -1.09454952       0.00000000
Si       1.74902472      -0.60250194       1.47840854       0.00000000
Si      -0.80247798       2.19916629       0.47413825       0.00000000
Si       1.25087652       0.50544612      -2.01295117       0.00000000
Si       0.95369805       3.34132335      -0.57888972       0.00000000
Si       2.79683010       1.99239732      -1.04062319       0.00000000
Si      -2.90173770      -0.68795928      -2.00981552       0.00000000
Si       3.59207532       0.43377012       0.51235186       0.00000000
Si       0.87099372      -2.78936928      -2.23134421       0.00000000
Si       1.71514152      -2.99520972       1.50990289       0.00000000
