10
Lattice="16.28999089631971 0.0 0.0 0.0 16.28999089631971 0.0 0.0 0.0 34.45770212530097" Properties=species:S:1:pos:R:3:initial_magmoms:R:1 pbc="T T T"
Si       0.21624975      -0.34757973       2.34546818       0.00000000
Si       0.85208103      -2.02036725      -1.25198685       0.00000000
Si      -1.99472679      -1.40325318      -0.97959856       0.00000000
Si       1.85738580       1.49048613       1.19661329       0.00000000
Si      -0.58758030      -1.12801734      -3.13472229       0.00000000
Si      -0.80138655      -2.44131714       2.21849148       0.00000000
Si       1.68081849       1.71755244      -2.50028672       0.00000000
Si      -0.28593837       3.18301713      -1.65386725       0.00000000
Si      -2.90190060      -1.66912227       1.37314020       0.00000000
Si       3.63879504       0.64907505      -0.33289605       0.00000000
