10
Lattice="16.28999089631971 0.0 0.0 0.0 16.28999089631971 0.0 0.0 0.0 34.45770212530097" Properties=species:S:1:pos:R:3:initial_magmoms:R:1 pbc="T T T"
Si       0.73542834      -1.81384263       1.30987582       0.00000000
Si       1.93548006       1.30947165       0.44602075       0.00000000
Si      -1.93280850       0.74090178       1.23176017       0.00000000
Si      -0.78674184      -0.87720021      -2.11411904       0.00000000
Si      -3.43034331      -0.78723054       0.37493447       0.00000000
Si       1.21270905       2.53589688       2.32644752       0.00000000
Si      -3.11402246      -0.55206810      -1.92122471       0.00000000
Si       1.33462341      -0.75114819       3.44139601       0.00000000
Si       2.95464762      -2.31394563       0.67102967       0.00000000
Si       3.66922476      -0.13690116       1.04355209       0.00000000
