10
Lattice="16.28999089631971 0.0 0.0 0.0 16.28999089631971 0.0 0.0 0.0 34.45770212530097" Properties=species:S:1:pos:R:3:initial_magmoms:R:1 pbc="T T T"
Si      -2.32728062       0.32513211       0.19289432       0.00000000
Si       0.46610577       1.43488836      -1.82801658       0.00000000
Si       0.78674184       0.87720021       2.11411904       0.00000000
Si       0.38024118      -2.30763977      -0.68477830       0.00000000
Si      -2.64360147       0.08996967       2.48905350       0.00000000
Si      -2.75430180       2.50584183      -0.60714505       0.00000000
Si      -1.63440828       2.20708323      -2.67336786       0.00000000
Si       1.57336965       0.15421743      -3.50142136       0.00000000
Si       1.52217018      -0.93664242       3.42399486       0.00000000
Si      -1.14606666       1.61810199       3.34587920       0.00000000
