10
Lattice="16.28999089631971 0.0 0.0 0.0 16.28999089631971 0.0 0.0 0.0 34.45770212530097" Properties=species:S:1:pos:R:3:initial_magmoms:R:1 pbc="T T T"
Si       1.40828679      -1.44060615       1.19812943       0.00000000
Si      -2.33479683      -0.25241355       0.18910397       0.00000000
Si       0.27807030      -0.02761155      -2.34195349       0.00000000
Si       0.44587359       2.22047361       0.72037312       0.00000000
Si       2.72091870       1.51099524       1.40163673       0.00000000
Si       1.78492788      -0.09179415       3.04654498       0.00000000
Si      -2.74017348      -1.25353179      -1.89748334       0.00000000
Si       0.60370740      -2.47156767      -2.50817754       0.00000000
Si       3.60797436      -0.56141856       0.72395673       0.00000000
Si       0.95985567       3.45709638      -1.17638661       0.00000000
