10
Lattice="16.28999089631971 0.0 0.0 0.0 16.28999089631971 0.0 0.0 0.0 34.45770212530097" Properties=species:S:1:pos:R:3:initial_magmoms:R:1 pbc="T T T"
Si       1.35466011       1.35573525       1.35842675       0.00000000
Si      -1.35705474       1.35713619      -1.35684169       0.00000000
Si       1.35759231      -1.35731538      -1.35728965       0.00000000
Si      -1.35806472      -1.35707103       1.35773760       0.00000000
Si      -2.71357191      -0.00011403      -2.71420026       0.00000000
Si       2.71430496       0.00259011      -2.71433809       0.00000000
Si       0.00022806      -2.71507059      -2.71364893       0.00000000
Si       0.00149868       2.71450044      -2.71478604       0.00000000
Si       2.71472850       2.71490769       0.00055132       0.00000000
Si      -2.71485882      -2.71487511       0.00024120       0.00000000
