10
Lattice="16.28999089631971 0.0 0.0 0.0 16.28999089631971 0.0 0.0 0.0 34.45770212530097" Properties=species:S:1:pos:R:3:initial_magmoms:R:1 pbc="T T T"
Si       1.34835588       1.36371735       1.39357707       0.00000000
Si      -1.36959804      -1.35355239       1.39006238       0.00000000
Si      -1.36215351       1.39422852      -1.41607452       0.00000000
Si       1.41907077      -1.45521828      -1.55927047       0.00000000
Si       2.68275123       2.70881527       0.03127383       0.00000000
Si       2.69562033      -2.70453096       0.03470237       0.00000000
Si      -2.72500749      -2.69322570       0.00164019       0.00000000
Si      -2.73359232       2.71147488       0.02625334       0.00000000
Si       2.70314631       0.00596214       2.75262406       0.00000000
Si      -0.01088172      -2.71010214       2.75141804       0.00000000
