10
Lattice="16.28999089631971 0.0 0.0 0.0 16.28999089631971 0.0 0.0 0.0 34.45770212530097" Properties=species:S:1:pos:R:3:initial_magmoms:R:1 pbc="T T T"
Si      -1.53055953       1.38469887      -1.11222633       0.00000000
Si      -0.51375402      -2.33550056       0.07353278       0.00000000
Si       1.99014930       0.35145675      -1.35160412       0.00000000
Si       0.01510083       0.45786303       2.39946343       0.00000000
Si       1.70368965      -1.06494246       3.00939955       0.00000000
Si       0.92895354      -2.98251655       1.89224577       0.00000000
Si      -3.55568346       1.03156425      -0.12056757       0.00000000
Si       3.59523558       1.14344397       0.12504707       0.00000000
Si      -0.84004272       3.60958707      -0.73405284       0.00000000
Si      -1.78751799       0.53093997      -3.29143600       0.00000000
