10
Lattice="16.28999089631971 0.0 0.0 0.0 16.28999089631971 0.0 0.0 0.0 34.45770212530097" Properties=species:S:1:pos:R:3:initial_magmoms:R:1 pbc="T T T"
Si      -0.33513417       0.18942012       2.29998399       0.00000000
Si       2.07246267       0.68198085      -0.89907087       0.00000000
Si      -0.51453594      -2.31152331      -0.22025376       0.00000000
Si      -1.58162868       1.44476010      -1.09713385       0.00000000
Si      -0.80545905      -2.37173440      -2.54621886       0.00000000
Si       2.09368854       2.90680389      -0.05785451       0.00000000
Si      -0.77704929       2.47572162       2.60917312       0.00000000
Si       3.76105149      -0.84082464      -0.28913474       0.00000000
Si       2.05736184       0.22411782      -3.29853429       0.00000000
Si      -2.24077095      -1.13466366       3.02001253       0.00000000
