10
Lattice="16.28999089631971 0.0 0.0 0.0 16.28999089631971 0.0 0.0 0.0 34.45770212530097" Properties=species:S:1:pos:R:3:initial_magmoms:R:1 pbc="T T T"
Si      -1.07391825      -1.57905977       1.44603348       0.00000000
Si       0.42357258      -1.72285160      -1.67374936       0.00000000
Si       1.69095087       1.14298524       1.41537989       0.00000000
Si      -1.90650015       1.96452741      -0.09282910       0.00000000
Si       2.11181931       1.19433132      -1.94148585       0.00000000
Si       0.48637053       2.86730292      -1.57492461       0.00000000
Si      -2.35628334      -0.13708522       2.80799215       0.00000000
Si       0.37888911       2.60019579       2.78628034       0.00000000
Si      -1.68125832      -3.45772031       0.10275048       0.00000000
Si       1.86373890      -0.79896425      -3.33026986       0.00000000
