10
Lattice="16.28999089631971 0.0 0.0 0.0 16.28999089631971 0.0 0.0 0.0 34.45770212530097" Properties=species:S:1:pos:R:3:initial_magmoms:R:1 pbc="T T T"
Si       0.68290286       1.89610713       1.28217181       0.00000000
Si      -2.22928391       0.95337225      -0.28145067       0.00000000
Si       1.19914925       0.22009419      -2.21869822       0.00000000
Si      -0.21563236      -2.31962921       1.04868629       0.00000000
Si      -1.75043936      -2.80290464      -0.64904564       0.00000000
Si      -3.35223506      -1.03294890      -0.70869196       0.00000000
Si       2.13279431      -0.77208084       2.84844754       0.00000000
Si      -0.22113512      -0.96040953      -3.62264362       0.00000000
Si      -2.12732480       2.08842687      -2.31462852       0.00000000
Si      -1.18741729       2.16502245       2.87728163       0.00000000
