10
Lattice="16.28999089631971 0.0 0.0 0.0 16.28999089631971 0.0 0.0 0.0 34.45770212530097" Properties=species:S:1:pos:R:3:initial_magmoms:R:1 pbc="T T T"
Si       0.67105026      -0.44810532      -2.19285493       0.00000000
Si      -0.88705566       2.07241380       0.67768001       0.00000000
Si      -2.19968757      -0.87918759       0.47417270       0.00000000
Si       1.01074563      -1.49928273       1.62568084       0.00000000
Si      -1.82304648       0.46962441       2.32258825       0.00000000
Si      -0.27719064      -0.87180822       3.46085225       0.00000000
Si      -1.75777245      -3.16548909       0.16498357       0.00000000
Si      -3.60797436       0.56141856      -0.72395673       0.00000000
Si       2.89461897       0.27552906      -2.39191719       0.00000000
Si       0.72492129       3.22361181       1.89148770       0.00000000
