10
Lattice="16.28999089631971 0.0 0.0 0.0 16.28999089631971 0.0 0.0 0.0 34.45770212530097" Properties=species:S:1:pos:R:3:initial_magmoms:R:1 pbc="T T T"
Si      -1.41369507       1.25509563       1.35585620       0.00000000
Si       1.10469006       1.70429238      -1.24037632       0.00000000
Si       1.31807277      -1.45878579       1.34548788       0.00000000
Si      -1.83371643      -0.96912468      -1.29396979       0.00000000
Si      -0.39170934      -2.48464854      -2.37744636       0.00000000
Si       2.15625843       0.26933886      -2.80854691       0.00000000
Si      -2.69024463       2.50440831      -0.23811664       0.00000000
Si      -0.75153915       3.34780677      -1.35281400       0.00000000
Si      -0.05134608       2.60669322       2.71366272       0.00000000
Si       2.66313807      -0.10596645       2.71617813       0.00000000
