10
Lattice="16.28999089631971 0.0 0.0 0.0 16.28999089631971 0.0 0.0 0.0 34.45770212530097" Properties=species:S:1:pos:R:3:initial_magmoms:R:1 pbc="T T T"
Si       1.35267273       1.35027810       1.37124502       0.00000000
Si       1.35415512      -1.35839052      -1.36214818       0.00000000
Si      -1.36264221       1.35698958      -1.36066650       0.00000000
Si      -1.37573937      -1.35422028       1.39247098       0.00000000
Si      -0.11503998       2.68692147       2.70661956       0.00000000
Si       2.71163340      -2.71238274      -0.00389372       0.00000000
Si       2.71075374       2.71857294      -0.00392818       0.00000000
Si      -2.71740006      -2.71274112      -0.00151614       0.00000000
Si       2.71099809       0.00070047      -2.71926554       0.00000000
Si      -0.00353493      -2.71445157      -2.71926554       0.00000000
