10
Lattice="16.28999089631971 0.0 0.0 0.0 16.28999089631971 0.0 0.0 0.0 34.45770212530097" Properties=species:S:1:pos:R:3:initial_magmoms:R:1 pbc="T T T"
Si      -1.35267273      -1.35027810      -1.37124502       0.00000000
Si       1.35808101       1.36829484      -1.37517320       0.00000000
Si      -1.46771271       1.33664337       1.33537453       0.00000000
Si       1.29959991      -1.43951472       1.45056670       0.00000000
Si      -0.12593799       2.71779102       2.62323187       0.00000000
Si       2.70231552       2.71264338      -0.02194957       0.00000000
Si       2.70190827      -2.71829601      -0.00737395       0.00000000
Si      -2.72841210      -2.70449838       0.02122596       0.00000000
Si       0.00148239      -2.70866862      -2.73339321       0.00000000
Si      -2.71531494       0.00671148      -2.73191152       0.00000000
