10
Lattice="16.28999089631971 0.0 0.0 0.0 16.28999089631971 0.0 0.0 0.0 34.45770212530097" Properties=species:S:1:pos:R:3:initial_magmoms:R:1 pbc="T T T"
Si      -1.33390665      -1.38287439      -1.44091854       0.00000000
Si       1.57623669      -0.63094428       1.74976309       0.00000000
Si       1.53800406       1.46013786      -1.44098745       0.00000000
Si      -1.40217804       0.06514371       2.31411165       0.00000000
Si       2.06366607       1.72305846       1.85051747       0.00000000
Si      -2.49000795       0.19515420      -2.87032819       0.00000000
Si       0.24399162      -2.52332100      -2.87883925       0.00000000
Si       0.35336268      -1.04616009       3.72784305       0.00000000
Si      -2.23891389      -3.31812639      -0.16060744       0.00000000
Si       0.23840415       2.89965258      -2.89155415       0.00000000
