10
Lattice="16.28999089631971 0.0 0.0 0.0 16.28999089631971 0.0 0.0 0.0 34.45770212530097" Properties=species:S:1:pos:R:3:initial_magmoms:R:1 pbc="T T T"
Si      -0.54258732       2.09921085       0.92963487       0.00000000
Si      -2.06353575      -1.03364937       0.58281790       0.00000000
Si       1.75554072      -1.11130380       1.41373139       0.00000000
Si       1.40217804      -0.06514371      -2.31411165       0.00000000
Si       2.97841473      -0.69608799      -0.56434856       0.00000000
Si       1.62847872       3.02519961       0.40935773       0.00000000
Si      -1.54101771      -1.37542986       2.89172644       0.00000000
Si       0.30211434      -2.72435589       2.42999297       0.00000000
Si       3.46584411       1.65791475      -0.46359418       0.00000000
Si      -2.12473728       3.34295235      -0.22797228       0.00000000
