10
Lattice="16.28999089631971 0.0 0.0 0.0 16.28999089631971 0.0 0.0 0.0 34.45770212530097" Properties=species:S:1:pos:R:3:initial_magmoms:R:1 pbc="T T T"
Si      -0.80819577      -1.71852984      -1.34030199       0.00000000
Si      -0.51969987      -1.04899455       2.13458692       0.00000000
Si       2.42797563       0.09014886      -0.24778547       0.00000000
Si      -1.33152831       1.61632638      -1.26711379       0.00000000
Si       1.03493628      -3.06745587      -1.80203546       0.00000000
Si       0.19023462       1.75611087      -3.30239356       0.00000000
Si       3.16731357       0.17497089       2.03813976       0.00000000
Si      -3.11212305      -0.53533827      -2.11970119       0.00000000
Si      -2.56437180      -2.86068690      -0.28727402       0.00000000
Si      -2.67533928      -2.02092111       1.91926062       0.00000000
