10
Lattice="16.28999089631971 0.0 0.0 0.0 16.28999089631971 0.0 0.0 0.0 34.45770212530097" Properties=species:S:1:pos:R:3:initial_magmoms:R:1 pbc="T T T"
Si      -1.26834984       1.36489023       1.37953555       0.00000000
Si      -1.25531075      -1.52937036      -1.32435306       0.00000000
Si       1.75915384       1.12503627      -1.18448314       0.00000000
Si       1.44032596      -1.37546244       1.37730269       0.00000000
Si       0.61500940      -1.79828568      -2.91946287       0.00000000
Si       3.45347674      -0.71171010      -1.26605904       0.00000000
Si      -2.61387126      -0.01293426       2.74154246       0.00000000
Si      -2.51787429       2.84785038      -0.09953802       0.00000000
Si       0.10252274       2.70044217       2.74006078       0.00000000
Si       0.10117719      -2.72785824       2.74939882       0.00000000
