10
Lattice="16.28999089631971 0.0 0.0 0.0 16.28999089631971 0.0 0.0 0.0 34.45770212530097" Properties=species:S:1:pos:R:3:initial_magmoms:R:1 pbc="T T T"
Si       0.70946208      -1.53512073       1.65462532       0.00000000
Si      -2.33730549      -0.49205574      -0.13648703       0.00000000
Si       0.57412476       1.98573471       1.21759804       0.00000000
Si       1.19987253      -0.83443896      -1.94214055       0.00000000
Si       1.24214508      -3.15918486      -1.19885304       0.00000000
Si       2.54570346       1.11381246       2.31817766       0.00000000
Si      -1.01734308      -3.06895455       1.64073886       0.00000000
Si       1.29691206       3.41021376      -0.48309725       0.00000000
Si      -2.48714091      -2.05840440      -1.84569339       0.00000000
Si       3.25762533       0.30964032      -1.79087115       0.00000000
