10
Lattice="16.28999089631971 0.0 0.0 0.0 16.28999089631971 0.0 0.0 0.0 34.45770212530097" Properties=species:S:1:pos:R:3:initial_magmoms:R:1 pbc="T T T"
Si       1.78696413      -1.45516941      -0.26721963       0.00000000
Si      -0.67132719       1.56038652       1.65338485       0.00000000
Si       0.46700172       1.12172940      -2.04444553       0.00000000
Si      -1.35311256      -1.92432141       0.48781796       0.00000000
Si       3.51376929       0.07866441      -0.25333317       0.00000000
Si       1.77147234      -1.97933274      -2.61385937       0.00000000
Si       2.80430721       1.61378514      -1.90795849       0.00000000
Si      -1.18530927       0.32376375       3.55014458       0.00000000
Si      -1.63118286      -1.89670986       2.82977145       0.00000000
Si       0.31716630      -0.44461926      -3.75365188       0.00000000
