10
Lattice="16.28999089631971 0.0 0.0 0.0 16.28999089631971 0.0 0.0 0.0 34.45770212530097" Properties=species:S:1:pos:R:3:initial_magmoms:R:1 pbc="T T T"
Si      -1.28236509       1.44197455       1.36195867       0.00000000
Si       1.47403323      -1.25437887       1.36104898       0.00000000
Si      -0.60734007      -1.87866054      -1.34328299       0.00000000
Si       1.07391825       1.57905977      -1.44603348       0.00000000
Si       1.49749083      -0.14379183      -3.11978284       0.00000000
Si      -2.54604555      -2.72205900      -0.22858563       0.00000000
Si      -2.61676044       0.09687663       2.72426191       0.00000000
Si       0.09285300      -2.61977409       2.72319372       0.00000000
Si      -2.64328056       2.75199580      -0.08342904       0.00000000
Si       2.76486912       2.72204501      -0.03065359       0.00000000
