10
Lattice="16.28999089631971 0.0 0.0 0.0 16.28999089631971 0.0 0.0 0.0 34.45770212530097" Properties=species:S:1:pos:R:3:initial_magmoms:R:1 pbc="T T T"
Si       1.35770634       1.35661491       1.35787543       0.00000000
Si      -1.35739683       1.35765747      -1.35715181       0.00000000
Si       1.35793440      -1.35769005      -1.35708290       0.00000000
Si      -1.35874890      -1.35876519       1.35856458       0.00000000
Si       2.71389771       0.00159642      -2.71409688       0.00000000
Si       0.00203625       2.71347852      -2.71461375       0.00000000
Si      -2.71441899       0.00047241      -2.71375231       0.00000000
Si      -2.71443528       2.71460986       0.00010337       0.00000000
Si       0.00063531      -2.71485882      -2.71440700       0.00000000
Si       2.71489140      -2.71505430      -0.00003446       0.00000000
