10
Lattice="16.28999089631971 0.0 0.0 0.0 16.28999089631971 0.0 0.0 0.0 34.45770212530097" Properties=species:S:1:pos:R:3:initial_magmoms:R:1 pbc="T T T"
Si       1.58214996      -1.24374150       1.15760715       0.00000000
Si       0.39405510       0.06209748      -2.33116822       0.00000000
Si       1.23391863       1.99826172       0.57940659       0.00000000
Si      -2.25606726      -0.33205536       1.60741824       0.00000000
Si      -1.43887941       1.76249655      -2.41000749       0.00000000
Si       0.06038703      -1.38352599       3.19288692       0.00000000
Si       3.75321600      -0.31775274       0.63733001       0.00000000
Si      -2.91898881       2.05874649       1.50538893       0.00000000
Si      -2.11295961       3.21108480      -0.50549477       0.00000000
Si      -0.42411015      -1.85916141      -3.39491254       0.00000000
