10
Lattice="16.28999089631971 0.0 0.0 0.0 16.28999089631971 0.0 0.0 0.0 34.45770212530097" Properties=species:S:1:pos:R:3:initial_magmoms:R:1 pbc="T T T"
Si       2.29122108      -0.04362462      -0.61603514       0.00000000
Si      -1.23391863      -1.99826172      -0.57940659       0.00000000
Si      -1.15773030       1.98460323      -0.83497950       0.00000000
Si       0.75846240       0.05584212       2.41617542       0.00000000
Si       0.34823133      -3.24200322       0.57820056       0.00000000
Si       2.51929737      -2.31601446       0.05792343       0.00000000
Si       0.58179735       2.37321747       2.51127873       0.00000000
Si      -0.83986353      -1.93616424      -2.91057481       0.00000000
Si      -1.12293486      -1.05388155       3.27930689       0.00000000
Si      -0.73290339       3.44265434       0.88783765       0.00000000
