10
Lattice="16.28999089631971 0.0 0.0 0.0 16.28999089631971 0.0 0.0 0.0 34.45770212530097" Properties=species:S:1:pos:R:3:initial_magmoms:R:1 pbc="T T T"
Si      -1.35756625       1.35705474      -1.35708290       0.00000000
Si       1.35703845      -1.35738054      -1.35742748       0.00000000
Si       1.35679410       1.35780408       1.35749639       0.00000000
Si      -1.35761837      -1.35852084       1.35784097       0.00000000
Si      -2.71226793      -0.00032580      -2.71420026       0.00000000
Si      -0.00185706       2.71391400       2.71368339       0.00000000
Si       2.71293660       0.00091224       2.71592314       0.00000000
Si       2.71508688      -0.00019548      -2.71389014       0.00000000
Si       0.00128691       2.71476108      -2.71444146       0.00000000
Si      -0.00169416      -2.71472850      -2.71482049       0.00000000
