10
Lattice="16.28999089631971 0.0 0.0 0.0 16.28999089631971 0.0 0.0 0.0 34.45770212530097" Properties=species:S:1:pos:R:3:initial_magmoms:R:1 pbc="T T T"
Si      -1.37541357      -1.48576692      -1.10888393       0.00000000
Si       1.24877511       0.77506191      -1.85785696       0.00000000
Si      -1.13052600       1.83374901       1.04272511       0.00000000
Si       1.06955253      -1.40543115       1.63867140       0.00000000
Si       2.51406406       1.86352713       1.60514404       0.00000000
Si       2.83038491       2.09868957      -0.69101514       0.00000000
Si       0.47456028       2.62573623       2.51937630       0.00000000
Si      -3.31283214      -1.65980276       0.25595195       0.00000000
Si       3.03572851      -0.30415059       2.45469916       0.00000000
Si      -0.37939410      -3.60957797      -1.48960730       0.00000000
