10
Lattice="16.28999089631971 0.0 0.0 0.0 16.28999089631971 0.0 0.0 0.0 34.45770212530097" Properties=species:S:1:pos:R:3:initial_magmoms:R:1 pbc="T T T"
Si       1.60508628       0.79198722       1.47665119       0.00000000
Si       1.13052600      -1.83374901      -1.04272511       0.00000000
Si      -0.24452919       1.91256003      -1.42475786       0.00000000
Si      -1.99014930      -0.35145675       1.35160412       0.00000000
Si      -3.52070883       1.03324212       0.23937779       0.00000000
Si       3.64459006       0.02977812       0.56241893       0.00000000
Si      -1.93461669       1.21575528      -2.90588856       0.00000000
Si      -0.55521207       3.69206334       0.12459912       0.00000000
Si       0.89769303       3.09614256       2.00816154       0.00000000
Si       1.66122162      -0.46783251       3.44845984       0.00000000
