10
Lattice="16.28999089631971 0.0 0.0 0.0 16.28999089631971 0.0 0.0 0.0 34.45770212530097" Properties=species:S:1:pos:R:3:initial_magmoms:R:1 pbc="T T T"
Si       0.08118936       1.78575867       1.49067548       0.00000000
Si      -0.05613534       1.25981973      -1.97180865       0.00000000
Si      -1.94768127      -0.94856670       0.91254384       0.00000000
Si       1.98737904      -1.26307773       0.18266038       0.00000000
Si       1.98336844       0.49761063      -2.88604091       0.00000000
Si      -1.14372090      -1.33561710       3.09661205       0.00000000
Si      -0.02076975       0.65070405       3.52385333       0.00000000
Si       2.50503289      -1.67006709      -2.03648579       0.00000000
Si      -3.63627009       0.57423879       0.30260771       0.00000000
Si       3.40766342      -0.08257401       1.58660578       0.00000000
