10
Lattice="16.28999089631971 0.0 0.0 0.0 16.28999089631971 0.0 0.0 0.0 34.45770212530097" Properties=species:S:1:pos:R:3:initial_magmoms:R:1 pbc="T T T"
Si       1.35713619       1.35764118       1.38549329       0.00000000
Si      -1.36001952      -1.35488817       1.38694051       0.00000000
Si       1.31823567      -1.52865360      -1.34628385       0.00000000
Si      -1.24015770       1.55330037      -1.43751411       0.00000000
Si       2.71569670      -0.15879492      -2.68040223       0.00000000
Si      -2.71422351      -2.70397710       0.00444160       0.00000000
Si      -2.70475902       2.72150514       0.01921363       0.00000000
Si       2.70265761       2.73546567       0.02348638       0.00000000
Si       2.73722499      -2.71878471       0.04032587       0.00000000
Si       0.00151497      -2.71314837       2.74564293       0.00000000
