10
Lattice="16.28999089631971 0.0 0.0 0.0 16.28999089631971 0.0 0.0 0.0 34.45770212530097" Properties=species:S:1:pos:R:3:initial_magmoms:R:1 pbc="T T T"
Si      -1.69008750      -0.69680475      -1.48113070       0.00000000
Si       1.51154910       0.61928064      -1.71072249       0.00000000
Si      -0.31068288       1.77950331       1.54935698       0.00000000
Si       0.24452919      -1.91256003       1.42475786       0.00000000
Si       1.39559688      -1.45145529      -2.93031908       0.00000000
Si      -2.58566283       1.34557029       2.04230915       0.00000000
Si       1.84961547      -1.12057281       2.90140906       0.00000000
Si      -3.27617964      -0.87931791       1.66413565       0.00000000
Si       1.14222222       1.18358253       3.43291941       0.00000000
Si       0.84103641       2.82017367      -2.44418955       0.00000000
