10
Lattice="16.28999089631971 0.0 0.0 0.0 16.28999089631971 0.0 0.0 0.0 34.45770212530097" Properties=species:S:1:pos:R:3:initial_magmoms:R:1 pbc="T T T"
Si      -0.08118936      -1.78575867      -1.49067548       0.00000000
Si      -0.10195911      -1.13505462       2.03317785       0.00000000
Si       1.88421121       1.37015190       0.17949027       0.00000000
Si      -1.47266487       1.73693754      -0.54591368       0.00000000
Si      -2.02887063      -2.73432537      -0.57813165       0.00000000
Si      -0.13732470      -0.52593894      -3.46248413       0.00000000
Si      -0.84471795       1.77821640      -2.93097378       0.00000000
Si       3.40544798       0.17568765      -1.09727168       0.00000000
Si      -1.22491026      -3.12137577       1.60593656       0.00000000
Si      -0.94872960       0.38503044       3.58094978       0.00000000
