10
Lattice="16.28999089631971 0.0 0.0 0.0 16.28999089631971 0.0 0.0 0.0 34.45770212530097" Properties=species:S:1:pos:R:3:initial_magmoms:R:1 pbc="T T T"
Si      -1.19452941       1.43462772      -1.36226189       0.00000000
Si       1.34203536       1.37212299       1.35418845       0.00000000
Si      -1.37393118      -1.33975476       1.35697953       0.00000000
Si       1.43889570      -1.19565342      -1.48851154       0.00000000
Si       0.55332243       2.24279091      -2.80955997       0.00000000
Si       2.35729332       0.55110699      -2.83915915       0.00000000
Si       2.68842015      -2.67861357      -0.00943797       0.00000000
Si      -0.01475874      -2.69799867       2.71354556       0.00000000
Si      -2.71899648      -2.69257410      -0.01371073       0.00000000
Si       2.70262441       0.01752804       2.71295978       0.00000000
