10
Lattice="16.28999089631971 0.0 0.0 0.0 16.28999089631971 0.0 0.0 0.0 34.45770212530097" Properties=species:S:1:pos:R:3:initial_magmoms:R:1 pbc="T T T"
Si       1.86279571       0.87159645      -1.27882941       0.00000000
Si      -1.74841126       1.69116264      -0.00640914       0.00000000
Si      -0.90579812      -1.90338876      -1.25370973       0.00000000
Si       0.66996535      -0.45063027       2.45556060       0.00000000
Si       1.92176551       1.74149874       2.39360562       0.00000000
Si       0.43042904       2.23365222      -2.75844397       0.00000000
Si      -2.32638046      -0.49187655      -2.72481323       0.00000000
Si       3.32891200       2.01673458       0.23848189       0.00000000
Si      -0.98455687       3.50350659      -1.41483404       0.00000000
Si      -1.26137284      -1.55273022       3.37413454       0.00000000
