10
Lattice="16.28999089631971 0.0 0.0 0.0 16.28999089631971 0.0 0.0 0.0 34.45770212530097" Properties=species:S:1:pos:R:3:initial_magmoms:R:1 pbc="T T T"
Si       1.22287401       0.41521581      -1.97807995       0.00000000
Si      -1.45342638      -1.61305209       1.01626158       0.00000000
Si       1.87294275       0.34529913       1.60617777       0.00000000
Si      -1.75554072       1.11130380      -1.41373139       0.00000000
Si      -0.06038703       1.54455264       2.57051156       0.00000000
Si      -3.29655843      -0.26412606       1.47799504       0.00000000
Si       0.41669820       3.49674624       1.28975251       0.00000000
Si       1.71030339       2.76921855      -1.87732558       0.00000000
Si      -0.35336268       1.04616009      -3.72784305       0.00000000
Si      -3.81907647       0.07765443      -0.83091349       0.00000000
