10
Lattice="16.28999089631971 0.0 0.0 0.0 16.28999089631971 0.0 0.0 0.0 34.45770212530097" Properties=species:S:1:pos:R:3:initial_magmoms:R:1 pbc="T T T"
Si      -0.86429853      -0.55276857      -2.14750857       0.00000000
Si      -2.15790372       0.17475912       1.01956952       0.00000000
Si       1.51656888      -1.54153899       1.09768517       0.00000000
Si      -0.02544498       2.36576412      -0.58750415       0.00000000
Si      -2.70166392       0.81451629      -1.27455666       0.00000000
Si       1.40287397       1.58695551      -2.37934012       0.00000000
Si      -0.70165917      -2.97668799       1.33599477       0.00000000
Si       3.49036775      -0.02295261       0.75138507       0.00000000
Si       3.27226094       0.12183291      -1.59677081       0.00000000
Si       1.18913742       3.42971289       1.05375158       0.00000000
