10
Lattice="16.28999089631971 0.0 0.0 0.0 16.28999089631971 0.0 0.0 0.0 34.45770212530097" Properties=species:S:1:pos:R:3:initial_magmoms:R:1 pbc="T T T"
Si       2.05775280       1.14407928       0.15126940       0.00000000
Si      -0.73933794      -0.08482203      -2.28592524       0.00000000
Si      -1.19987253       0.83443896       1.94214055       0.00000000
Si       0.04227255      -2.32474590       0.74328751       0.00000000
Si       1.19399184      -1.28407554      -3.25025903       0.00000000
Si      -0.49041045      -0.70068177       3.59676587       0.00000000
Si       2.68986996       0.90189585       2.41776048       0.00000000
Si      -2.23270740      -2.75867892       1.23623967       0.00000000
Si      -3.16731357      -0.17497089      -2.03813976       0.00000000
Si      -3.68701344      -1.22396544       0.09644716       0.00000000
