10
Lattice="16.28999089631971 0.0 0.0 0.0 16.28999089631971 0.0 0.0 0.0 34.45770212530097" Properties=species:S:1:pos:R:3:initial_magmoms:R:1 pbc="T T T"
Si       1.19452941      -1.43462772       1.36226189       0.00000000
Si      -1.73784978      -0.96412365      -1.23731303       0.00000000
Si       1.74785184       0.80816319      -1.44729808       0.00000000
Si      -1.51270569       1.30367241       1.35458127       0.00000000
Si       0.44199657       0.88803306      -3.52216977       0.00000000
Si       2.53656477      -0.06250473       2.71645034       0.00000000
Si       2.61101007       2.64759741      -0.12771410       0.00000000
Si       2.63342511      -2.63028114      -0.12624965       0.00000000
Si      -0.68628141      -2.39907717      -2.80548362       0.00000000
Si      -0.17708859       2.65528629       2.72110214       0.00000000
