10
Lattice="16.28999089631971 0.0 0.0 0.0 16.28999089631971 0.0 0.0 0.0 34.45770212530097" Properties=species:S:1:pos:R:3:initial_magmoms:R:1 pbc="T T T"
Si      -1.11989352       0.29875860       2.06622280       0.00000000
Si       2.10051405      -0.77219487       0.84535128       0.00000000
Si      -0.98887142       2.01961791      -0.93252931       0.00000000
Si       0.90717381       0.26586909      -2.35273876       0.00000000
Si      -0.34462635      -1.92625992      -2.29078378       0.00000000
Si      -0.69287234      -1.88195112       2.86626218       0.00000000
Si       3.11815035       1.32154254       0.97232798       0.00000000
Si       2.90190060       1.66912227      -1.37314020       0.00000000
Si      -3.38676335       0.38494899       1.46452207       0.00000000
Si       1.63440828      -2.20708323       2.67336786       0.00000000
