10
Lattice="16.28999089631971 0.0 0.0 0.0 16.28999089631971 0.0 0.0 0.0 34.45770212530097" Properties=species:S:1:pos:R:3:initial_magmoms:R:1 pbc="T T T"
Si      -1.35729559       1.35744570      -1.35759976       0.00000000
Si      -1.35879427      -1.35703845       1.35697953       0.00000000
Si       1.35758019      -1.35788553      -1.35735856       0.00000000
Si       1.35849731       1.35752715       1.35715181       0.00000000
Si       2.71328937      -0.00102627       2.71340773       0.00000000
Si      -2.71451323       0.00188964       2.71499278       0.00000000
Si       0.00287851      -2.71526607      -2.71447592       0.00000000
Si       2.71501611       2.71503801      -0.00048241       0.00000000
Si       2.71514643      -2.71494027      -0.00027566       0.00000000
Si      -2.71514854       2.71497285      -0.00037903       0.00000000
