10
Lattice="16.28999089631971 0.0 0.0 0.0 16.28999089631971 0.0 0.0 0.0 34.45770212530097" Properties=species:S:1:pos:R:3:initial_magmoms:R:1 pbc="T T T"
Si      -1.25739904       1.39266468      -1.39664036       0.00000000
Si      -1.74851321      -1.05564087       1.22400718       0.00000000
Si       1.45782468      -1.33278264      -1.37283008       0.00000000
Si       0.67660515       1.58232915       1.85210252       0.00000000
Si       1.96952616       0.04566087       3.09192580       0.00000000
Si       2.73201219       2.59506216      -0.04951575       0.00000000
Si      -0.91893519      -1.43246115       3.36906925       0.00000000
Si      -3.41807273       0.81735075       1.40539262       0.00000000
Si      -2.68746623       2.67633297      -0.06901882       0.00000000
Si      -2.61839663       0.03124422      -2.75093219       0.00000000
