10
Lattice="16.28999089631971 0.0 0.0 0.0 16.28999089631971 0.0 0.0 0.0 34.45770212530097" Properties=species:S:1:pos:R:3:initial_magmoms:R:1 pbc="T T T"
Si      -0.67695701      -0.33373323       2.29481533       0.00000000
Si      -0.16724943       2.32578846      -0.68312433       0.00000000
Si       2.33070804       0.27512181      -0.63822592       0.00000000
Si      -1.58411779      -1.67358573      -0.95551261       0.00000000
Si      -1.89078682       2.74304052       0.78112209       0.00000000
Si       1.98177624      -1.02840399      -2.59966279       0.00000000
Si      -0.72828680       1.97205111       2.71974795       0.00000000
Si      -0.41603031       1.80007758      -2.97983483       0.00000000
Si      -3.48101729      -1.01898837       0.35284707       0.00000000
Si      -0.15275133      -0.49340781      -3.63329106       0.00000000
