10
Lattice="16.28999089631971 0.0 0.0 0.0 16.28999089631971 0.0 0.0 0.0 34.45770212530097" Properties=species:S:1:pos:R:3:initial_magmoms:R:1 pbc="T T T"
Si       0.88806564       0.53600616      -2.09537404       0.00000000
Si      -1.91922264      -1.32440958      -0.35904946       0.00000000
Si      -0.76478292       1.97587926       1.07956041       0.00000000
Si       1.60063911      -0.81182844       1.60827969       0.00000000
Si       0.06908589      -1.02597678       3.42957701       0.00000000
Si       0.92080854       3.56068449       0.42069432       0.00000000
Si      -0.81939677       1.70526978      -3.24915638       0.00000000
Si      -1.45710303      -3.45279582       0.39491994       0.00000000
Si      -2.36310494      -1.50576615      -2.65779297       0.00000000
Si       1.65543867      -1.34249148      -3.24105882       0.00000000
