10
Lattice="16.28999089631971 0.0 0.0 0.0 16.28999089631971 0.0 0.0 0.0 34.45770212530097" Properties=species:S:1:pos:R:3:initial_magmoms:R:1 pbc="T T T"
Si       0.44388230       0.18135657       2.29874351       0.00000000
Si      -0.62823495       2.28359736      -0.26684059       0.00000000
Si      -1.82292726      -1.53896517      -0.05775114       0.00000000
Si       1.94749817      -0.81640593      -1.19344318       0.00000000
Si       1.54370817       3.21103593      -0.59136341       0.00000000
Si      -2.45087418      -1.58024403       2.32730896       0.00000000
Si       0.90600191      -1.94702967       3.05271291       0.00000000
Si      -1.26035211       2.52578079      -2.53333168       0.00000000
Si       2.36310494       1.50576615       2.65779297       0.00000000
Si       3.25117058       2.04177231       0.56241893       0.00000000
