10
Lattice="16.28999089631971 0.0 0.0 0.0 16.28999089631971 0.0 0.0 0.0 34.45770212530097" Properties=species:S:1:pos:R:3:initial_magmoms:R:1 pbc="T T T"
Si      -1.38600600       1.18877904       1.47817422       0.00000000
Si       1.23395447       0.95071698      -1.84111537       0.00000000
Si      -1.73915691      -1.00688490      -1.35226368       0.00000000
Si       1.32214853      -1.52537931       1.45049089       0.00000000
Si       0.18704178      -1.06240122      -2.99451868       0.00000000
Si      -2.67996957       2.52423324      -0.00308052       0.00000000
Si       2.68500251       2.56207491       0.03277618       0.00000000
Si      -0.03937619       2.53198728       2.84521885       0.00000000
Si      -2.65755453      -2.75364531      -0.00161607       0.00000000
Si      -3.54312780       0.68479902      -1.32266450       0.00000000
