10
Lattice="16.28999089631971 0.0 0.0 0.0 16.28999089631971 0.0 0.0 0.0 34.45770212530097" Properties=species:S:1:pos:R:3:initial_magmoms:R:1 pbc="T T T"
Si      -1.35691656       1.35725022      -1.35735856       0.00000000
Si      -1.35815460      -1.35795069       1.35677278       0.00000000
Si       1.35805859      -1.35762489      -1.35746193       0.00000000
Si       1.35875092       1.35653346       1.35859904       0.00000000
Si       0.00092992       2.71365621      -2.71420026       0.00000000
Si       2.71414082       0.00151497       2.71389014       0.00000000
Si       0.00007302      -2.71412577       2.71488941       0.00000000
Si      -2.71444371       2.71497866      -0.00013783       0.00000000
Si       0.00173398      -2.71381626      -2.71561302       0.00000000
Si      -2.71481838      -2.71507059      -0.00027566       0.00000000
