10
Lattice="16.28999089631971 0.0 0.0 0.0 16.28999089631971 0.0 0.0 0.0 34.45770212530097" Properties=species:S:1:pos:R:3:initial_magmoms:R:1 pbc="T T T"
Si       1.35538990      -1.35501849       1.35529110       0.00000000
Si      -1.35875092      -1.35653346      -1.35859904       0.00000000
Si       1.35648133       1.35870246      -1.35884024       0.00000000
Si      -1.35912954       1.36159965       1.35870241       0.00000000
Si       0.00231970      -2.70923877       2.71058219       0.00000000
Si       2.71365010      -2.71472850      -0.00037903       0.00000000
Si       2.71374784       0.00135207      -2.71564748       0.00000000
Si       2.71397590       2.71584829      -0.00323903       0.00000000
Si      -0.00069232      -2.71415835      -2.71606097       0.00000000
Si      -2.71690551      -2.71448415      -0.00182626       0.00000000
