10
Lattice="10.86 0.0 0.0 0.0 10.86 0.0 0.0 0.0 10.86" Properties=species:S:1:pos:R:3:initial_magmoms:R:1 pbc="T T T"
Si      -1.56738036      -1.02148074      -1.35950910       0.00000000
Si      -1.33184868       1.50186198       1.23094842       0.00000000
Si      -0.68862174      -1.50729198       1.82973624       0.00000000
Si       1.42042284       1.40168934      -1.53788460       0.00000000
Si      -0.09055068      -2.50619478      -2.78655654       0.00000000
Si      -2.80555068      -2.50619478      -0.07155654       0.00000000
Si       2.62444932       0.20880522      -2.78655654       0.00000000
Si      -2.80555068       0.20880522       2.64344346       0.00000000
Si       2.62444932       2.92380522      -0.07155654       0.00000000
Si      -0.09055068       2.92380522       2.64344346       0.00000000
