10
Lattice="16.28999089631971 0.0 0.0 0.0 16.28999089631971 0.0 0.0 0.0 34.376317263855086" Properties=species:S:1:pos:R:3:initial_magmoms:R:1 pbc="T T T"
Si       0.86348403       1.84842793       1.20908451       0.00000000
Si      -1.38474774       1.28488678      -1.59825901       0.00000000
Si       1.47056346      -1.67375419      -1.27103066       0.00000000
Si      -1.24530534      -0.84040666       2.15409000       0.00000000
Si      -0.90727155       1.39895425       2.73219685       0.00000000
Si       0.87019551      -1.88436760       2.66031593       0.00000000
Si       1.75762584      -3.14277010       0.68728610       0.00000000
Si       0.33511788       2.31456628      -2.90015963       0.00000000
Si      -2.40371982      -0.49261516      -2.83016941       0.00000000
Si       1.92608073       3.32267293      -1.44545620       0.00000000
