10
Lattice="16.28999089631971 0.0 0.0 0.0 16.28999089631971 0.0 0.0 0.0 34.376317263855086" Properties=species:S:1:pos:R:3:initial_magmoms:R:1 pbc="T T T"
Si       1.21367016      -1.47770988      -1.40018256       0.00000000
Si       0.95364918      -0.33431967       2.16271846       0.00000000
Si      -2.34647676      -0.42187842      -0.17590371       0.00000000
Si       1.00255176       2.12564952      -0.60213591       0.00000000
Si       3.17097882       1.24028802      -0.08669712       0.00000000
Si      -0.50055912       1.28642130       3.20205261       0.00000000
Si       3.41233146      -1.07605224      -0.64256248       0.00000000
Si      -2.39533047      -2.00673252      -1.88502641       0.00000000
Si       0.61626699      -0.95381208      -3.67892115       0.00000000
Si       3.08799756       0.71866593       2.18822570       0.00000000
