10
Lattice="16.28999089631971 0.0 0.0 0.0 16.28999089631971 0.0 0.0 0.0 34.376317263855086" Properties=species:S:1:pos:R:3:initial_magmoms:R:1 pbc="T T T"
Si      -1.35830907      -1.35602847      -1.35800280       0.00000000
Si       1.35826020       1.35651717      -1.35762466       0.00000000
Si       1.35734796      -1.35772263       1.35793404       0.00000000
Si      -1.35765747       1.35762489       1.35783091       0.00000000
Si       2.71394658      -0.00094482       2.71397739       0.00000000
Si      -0.00114030       2.71419093       2.71390864       0.00000000
Si      -2.71492398      -0.00187335       2.71483680       0.00000000
Si       2.71510317       2.71480995      -0.00020626       0.00000000
Si      -0.00143352      -2.71528236       2.71483680       0.00000000
Si      -2.71523349      -2.71497285       0.00044689       0.00000000
