10
Lattice="16.28999089631971 0.0 0.0 0.0 16.28999089631971 0.0 0.0 0.0 34.376317263855086" Properties=species:S:1:pos:R:3:initial_magmoms:R:1 pbc="T T T"
Si       1.92438657       0.51953697       1.33706761       0.00000000
Si      -0.23325651      -2.33968383       0.52771114       0.00000000
Si       0.82934019      -0.86543883      -2.12682956       0.00000000
Si      -2.10476574       1.46510631       0.56363441       0.00000000
Si       3.35301957      -0.92962143      -0.01474745       0.00000000
Si      -1.09664280       3.22719561       1.93346267       0.00000000
Si      -2.00401209      -2.78915751       2.05082348       0.00000000
Si      -0.76162266      -1.87354548      -3.58153299       0.00000000
Si       2.17137555      -0.36478197       3.55585387       0.00000000
Si       1.88892324       0.77028894      -3.67723671       0.00000000
