10
Lattice="16.28999089631971 0.0 0.0 0.0 16.28999089631971 0.0 0.0 0.0 34.376317263855086" Properties=species:S:1:pos:R:3:initial_magmoms:R:1 pbc="T T T"
Si       1.75824486       0.95843844      -1.38148183       0.00000000
Si      -1.00812294      -1.76208930      -1.36982826       0.00000000
Si      -1.81444536       1.68187734       0.58563527       0.00000000
Si       0.44455410      -1.13116131       2.31005543       0.00000000
Si       2.57248422       2.76470622      -0.23963744       0.00000000
Si      -2.35716300      -2.92245858       0.60818614       0.00000000
Si      -0.25660008       0.57226770       3.81353889       0.00000000
Si       1.09664280      -3.22719561      -1.93346267       0.00000000
Si      -2.33240220       1.27032678       2.88163078       0.00000000
Si       3.02102937      -2.70765864      -0.59639506       0.00000000
