10
Lattice="16.28999089631971 0.0 0.0 0.0 16.28999089631971 0.0 0.0 0.0 34.376317263855086" Properties=species:S:1:pos:R:3:initial_magmoms:R:1 pbc="T T T"
Si       2.25525276       0.39094371       0.30632753       0.00000000
Si      -1.03118958      -0.61462889       2.02308178       0.00000000
Si      -0.88406807      -1.99061261      -0.95500900       0.00000000
Si      -1.35644061       1.75809825      -1.07525743       0.00000000
Si      -2.71613663      -1.29502961       0.44575796       0.00000000
Si      -3.34765106       0.46011105      -0.92981115       0.00000000
Si      -1.20350194       3.28888584       0.89753177       0.00000000
Si       2.30410647       1.97579781       2.01545023       0.00000000
Si       0.02427210      -3.73636304       0.34610096       0.00000000
Si       2.95536438       1.79317062      -1.49127985       0.00000000
