10
Lattice="16.28999089631971 0.0 0.0 0.0 16.28999089631971 0.0 0.0 0.0 34.376317263855086" Properties=species:S:1:pos:R:3:initial_magmoms:R:1 pbc="T T T"
Si      -1.57512897       1.58413734      -0.61564581       0.00000000
Si      -0.18614583      -1.88164161      -1.40368895       0.00000000
Si       0.06406857      -1.17722943       2.04879528       0.00000000
Si       1.99964637       1.31652522      -0.38357116       0.00000000
Si       2.01645765      -2.46949884      -1.06518516       0.00000000
Si       2.08546209      -2.29001562       1.31884815       0.00000000
Si      -0.17014905       2.79555948      -2.06337084       0.00000000
Si      -1.87075989       2.67856470       1.43098376       0.00000000
Si       0.81019944       1.03470822      -3.51223030       0.00000000
Si      -0.26169885      -1.13761215      -3.58239240       0.00000000
