10
Lattice="16.28999089631971 0.0 0.0 0.0 16.28999089631971 0.0 0.0 0.0 34.376317263855086" Properties=species:S:1:pos:R:3:initial_magmoms:R:1 pbc="T T T"
Si      -0.59443839       1.72284669      -1.41070172       0.00000000
Si      -1.40497992      -1.21142214       1.44772503       0.00000000
Si       1.51453017       0.76439196       1.66910864       0.00000000
Si       0.98034849      -1.76085126      -1.44885945       0.00000000
Si       2.16979542      -1.47903426       1.67979968       0.00000000
Si       0.17014905      -2.79555948       2.06337084       0.00000000
Si       3.08991978      -1.71532071      -0.46229297       0.00000000
Si      -2.99424861      -1.95036912      -0.06796202       0.00000000
Si      -1.98192285       0.63605934      -2.96475276       0.00000000
Si       1.32781419       2.96117991      -1.85914103       0.00000000
