10
Lattice="16.28999089631971 0.0 0.0 0.0 16.28999089631971 0.0 0.0 0.0 34.376317263855086" Properties=species:S:1:pos:R:3:initial_magmoms:R:1 pbc="T T T"
Si       1.34609157       1.36311462      -1.35711245       0.00000000
Si       1.35617508      -1.35677781       1.35786529       0.00000000
Si      -1.35834165       1.35747764       1.35831218       0.00000000
Si      -1.35755973      -1.36668213      -1.37340339       0.00000000
Si       2.59239060       0.01163106      -2.77897273       0.00000000
Si      -2.63021598       0.05357781      -2.78033403       0.00000000
Si       2.71477737      -2.70989037      -0.00202820       0.00000000
Si      -2.71433754       2.71437568      -0.00237197       0.00000000
Si       2.71435383       0.00076563       2.71469929       0.00000000
Si      -0.00083079      -2.71415835       2.71490555       0.00000000
