10
Lattice="16.28999089631971 0.0 0.0 0.0 16.28999089631971 0.0 0.0 0.0 34.376317263855086" Properties=species:S:1:pos:R:3:initial_magmoms:R:1 pbc="T T T"
Si      -1.99121045      -1.29798720       0.14544628       0.00000000
Si       1.35644061      -1.75809825       1.07525743       0.00000000
Si       0.15293867       1.53078759       1.97278920       0.00000000
Si       1.18850700       0.26518491      -2.18929136       0.00000000
Si      -1.47098930       1.87502787      -0.94081158       0.00000000
Si      -1.35969602      -3.05312786       1.52101538       0.00000000
Si      -3.48826145       0.07612317       1.24414837       0.00000000
Si       1.90691229       2.50303995      -1.98286146       0.00000000
Si       0.47237253      -3.74871086       0.12024842       0.00000000
Si       2.46487737       2.02474926       2.11166960       0.00000000
