10
Lattice="16.28999089631971 0.0 0.0 0.0 16.28999089631971 0.0 0.0 0.0 34.376317263855086" Properties=species:S:1:pos:R:3:initial_magmoms:R:1 pbc="T T T"
Si       1.70137647      -1.54546488       0.25153165       0.00000000
Si      -1.41455844      -1.29127572      -1.39719182       0.00000000
Si      -0.64094634       0.32715207       2.26220357       0.00000000
Si       0.79794936       1.69741800      -1.46147557       0.00000000
Si      -1.31755149       2.74137894      -1.96770150       0.00000000
Si      -0.03733668      -1.29236715      -3.51573668       0.00000000
Si       1.22062599      -2.93156469       2.10946951       0.00000000
Si       3.78999882      -0.38268468       0.45899284       0.00000000
Si       1.68537969       0.43901550      -3.43450540       0.00000000
Si       0.27249912      -1.39949019       3.57885164       0.00000000
