10
Lattice="16.28999089631971 0.0 0.0 0.0 16.28999089631971 0.0 0.0 0.0 34.376317263855086" Properties=species:S:1:pos:R:3:initial_magmoms:R:1 pbc="T T T"
Si      -2.24240321      -0.73805103      -0.29728656       0.00000000
Si       1.08072747       0.30882582      -2.10252549       0.00000000
Si       0.72428598      -1.47708923       1.72844220       0.00000000
Si       0.62121915       2.25210879       0.53819592       0.00000000
Si      -0.11494224       2.11587552      -3.08156355       0.00000000
Si       2.92664511       2.01712554       1.27543084       0.00000000
Si      -3.48984647       1.00458801      -1.14803213       0.00000000
Si      -2.25456858      -2.28160088      -2.09489394       0.00000000
Si      -3.04586185      -1.57941324       1.75542762       0.00000000
Si       0.11381823       3.71718252      -1.37089392       0.00000000
