10
Lattice="16.28999089631971 0.0 0.0 0.0 16.28999089631971 0.0 0.0 0.0 34.376317263855086" Properties=species:S:1:pos:R:3:initial_magmoms:R:1 pbc="T T T"
Si       0.14827158      -0.02894366      -2.45254535       0.00000000
Si       0.82872117       2.38278603       0.53575520       0.00000000
Si      -2.02975029      -0.10123439       1.59179626       0.00000000
Si       1.71782937      -2.05043063      -0.03472010       0.00000000
Si      -0.84882303      -1.36670675       3.23209753       0.00000000
Si       3.13145928       1.88799357       0.32440949       0.00000000
Si      -0.25314660       3.55496556      -1.24170765       0.00000000
Si       2.81344590      -1.57471376       1.98502717       0.00000000
Si      -0.71131914       2.07006690      -3.24392299       0.00000000
Si       1.43935182      -0.66996716       3.66293616       0.00000000
