10
Lattice="16.28999089631971 0.0 0.0 0.0 16.28999089631971 0.0 0.0 0.0 34.376317263855086" Properties=species:S:1:pos:R:3:initial_magmoms:R:1 pbc="T T T"
Si       1.19206962      -0.13900257      -1.96649833       0.00000000
Si      -2.19866130      -0.40165764      -0.75762008       0.00000000
Si      -0.24135264       2.31634026       0.55586536       0.00000000
Si       0.99799056      -1.79303183       1.37835359       0.00000000
Si      -0.32433390       1.79471817       2.83078818       0.00000000
Si       0.98688078      -2.51977697      -2.25866281       0.00000000
Si      -3.41233146       1.07605224       0.64256248       0.00000000
Si       3.38237415       0.51259743      -1.37990052       0.00000000
Si       0.36512406       1.66192209      -3.28596525       0.00000000
Si      -2.43851526      -2.75943545      -0.67673256       0.00000000
