10
Lattice="16.28999089631971 0.0 0.0 0.0 16.28999089631971 0.0 0.0 0.0 34.376317263855086" Properties=species:S:1:pos:R:3:initial_magmoms:R:1 pbc="T T T"
Si      -1.36088289      -1.35641943       1.35030250       0.00000000
Si      -1.35685926       1.35474156      -1.35834656       0.00000000
Si       1.35796698      -1.35948195      -1.35728089       0.00000000
Si       1.36871838       1.35337320       1.36305612       0.00000000
Si      -0.06040332       2.70347211       2.63336488       0.00000000
Si       2.71676475       2.71101438       0.00110004       0.00000000
Si      -2.71345788      -0.00203625      -2.71438990       0.00000000
Si       2.71349046      -2.71438641       0.00323138       0.00000000
Si       0.00180819       2.71363707      -2.71466492       0.00000000
Si      -2.71166598       2.71684620       0.00013751       0.00000000
