10
Lattice="16.28999089631971 0.0 0.0 0.0 16.28999089631971 0.0 0.0 0.0 34.376317263855086" Properties=species:S:1:pos:R:3:initial_magmoms:R:1 pbc="T T T"
Si       1.26975663      -1.39862682       1.36126855       0.00000000
Si      -1.35122292      -1.36239786      -1.34772427       0.00000000
Si      -1.50430005       1.20484098       1.33913019       0.00000000
Si       1.36088289       1.35641943      -1.35030250       0.00000000
Si       0.01840770       2.50299108       2.49121873       0.00000000
Si      -0.49837626      -1.97996805       2.99940411       0.00000000
Si      -2.71135647      -0.00317655      -2.70778965       0.00000000
Si       0.00402363       2.71116099      -2.70864906       0.00000000
Si       2.71884987      -0.00306252      -2.70758339       0.00000000
Si       0.00257382      -2.71912028      -2.70741151       0.00000000
