10
Lattice="16.28999089631971 0.0 0.0 0.0 16.28999089631971 0.0 0.0 0.0 34.376317263855086" Properties=species:S:1:pos:R:3:initial_magmoms:R:1 pbc="T T T"
Si      -2.20260348       0.58785723      -0.33850379       0.00000000
Si       0.31776903      -2.05954470      -1.00286086       0.00000000
Si       0.06900444       0.17948322       2.38403331       0.00000000
Si       1.53073872       1.31160564      -1.29402843       0.00000000
Si       3.16654794       1.05399558       0.34091013       0.00000000
Si      -2.01645765       2.46949884       1.06518516       0.00000000
Si       2.04035508       1.44682893       2.38461771       0.00000000
Si      -3.27078765      -1.49178933       0.01096605       0.00000000
Si       0.40075029      -1.53792261      -3.27778368       0.00000000
Si      -2.27815650       1.33188669      -2.51720724       0.00000000
