10
Lattice="16.28999089631971 0.0 0.0 0.0 16.28999089631971 0.0 0.0 0.0 34.376317263855086" Properties=species:S:1:pos:R:3:initial_magmoms:R:1 pbc="T T T"
Si       1.32665760      -1.37637468       1.28471245       0.00000000
Si      -1.32460506      -1.36300059      -1.34851493       0.00000000
Si       1.38992796       1.34897490      -1.34634922       0.00000000
Si      -1.42438131       1.21332807       1.51417449       0.00000000
Si       2.14834149       0.36326700       2.62783029       0.00000000
Si       0.28931040       2.15765937       2.92731693       0.00000000
Si      -2.68488522      -0.00996948      -2.70706774       0.00000000
Si      -2.69304651       2.70523143       0.04702683       0.00000000
Si       0.03095100       2.70542691      -2.70565831       0.00000000
Si      -2.70558981      -2.72513781       0.02248212       0.00000000
