10
Lattice="16.28999089631971 0.0 0.0 0.0 16.28999089631971 0.0 0.0 0.0 34.376317263855086" Properties=species:S:1:pos:R:3:initial_magmoms:R:1 pbc="T T T"
Si       0.90964989      -1.58793291      -1.49602379       0.00000000
Si       0.61779825      -1.02498309       2.06323334       0.00000000
Si      -1.94224041       1.07261505      -0.93967716       0.00000000
Si      -1.84037904       0.52926210       1.58110522       0.00000000
Si       2.19172176      -0.03103245      -2.70418013       0.00000000
Si       2.90216124      -1.35418770       1.42080836       0.00000000
Si      -0.55931715       2.55867030      -2.47471809       0.00000000
Si       2.20786515      -2.96756559      -0.09051289       0.00000000
Si       3.01340565       1.70860923      -1.36106229       0.00000000
Si      -1.02613968       2.33552988       2.72294961       0.00000000
