10
Lattice="16.28999089631971 0.0 0.0 0.0 16.28999089631971 0.0 0.0 0.0 34.376317263855086" Properties=species:S:1:pos:R:3:initial_magmoms:R:1 pbc="T T T"
Si      -1.35754344      -1.35687555      -1.35769341       0.00000000
Si       1.35757602       1.35830907      -1.35796842       0.00000000
Si       1.35897696      -1.35645201       1.35930910       0.00000000
Si      -1.36091547       1.36233270       1.36089041       0.00000000
Si      -0.03095100      -2.70542691       2.70565831       0.00000000
Si       2.71463076       2.71358820      -0.00144381       0.00000000
Si       2.71430496      -2.71538010      -0.00024063       0.00000000
Si       2.71531494       0.00001629      -2.71480242       0.00000000
Si      -2.71538010       0.00091224      -2.71490555       0.00000000
Si       0.00040725      -2.71477737      -2.71552432       0.00000000
