10
Lattice="16.28999089631971 0.0 0.0 0.0 16.28999089631971 0.0 0.0 0.0 34.376317263855086" Properties=species:S:1:pos:R:3:initial_magmoms:R:1 pbc="T T T"
Si       1.09561653       0.47571687       2.01974727       0.00000000
Si      -1.27115757      -1.91049120       0.69852716       0.00000000
Si      -1.71782937       2.05043063       0.03472010       0.00000000
Si       1.84868694      -0.47789973      -1.92266850       0.00000000
Si      -1.56955779       2.02148696      -2.41782525       0.00000000
Si       0.38128374       0.77414967      -3.45000913       0.00000000
Si       1.68463035      -1.78714332       2.59390085       0.00000000
Si       2.62260855      -2.55671550       0.50701659       0.00000000
Si      -2.76695424      -2.24182980      -1.04404372       0.00000000
Si       2.68695405       2.19107572       1.47581050       0.00000000
