10
Lattice="16.28999089631971 0.0 0.0 0.0 16.28999089631971 0.0 0.0 0.0 34.376317263855086" Properties=species:S:1:pos:R:3:initial_magmoms:R:1 pbc="T T T"
Si      -0.94960926      -1.23790968      -1.78884142       0.00000000
Si       1.54927674       1.17854829      -1.38681017       0.00000000
Si      -1.56946005       1.52442539       1.00702040       0.00000000
Si       0.96441687      -1.77200991       1.42335221       0.00000000
Si       0.94547160      -2.43774963      -2.53889871       0.00000000
Si      -0.45957348       1.87247427       3.11208974       0.00000000
Si       2.32155306      -0.51836409      -2.92769507       0.00000000
Si      -3.68062776       0.46833750       1.11589026       0.00000000
Si      -0.76289328      -3.43469763       1.73940825       0.00000000
Si      -1.88722908       0.21214467      -3.44189631       0.00000000
