10
Lattice="16.28999089631971 0.0 0.0 0.0 16.28999089631971 0.0 0.0 0.0 34.376317263855086" Properties=species:S:1:pos:R:3:initial_magmoms:R:1 pbc="T T T"
Si       1.23733953      -1.37272833       1.42802739       0.00000000
Si      -1.34522820      -1.35217167      -1.35899971       0.00000000
Si       1.36409202       1.36469801      -1.35992787       0.00000000
Si      -1.44052470       1.32403817       1.34841180       0.00000000
Si       0.07211583       2.56836611       2.67471961       0.00000000
Si      -0.39822534      -2.60365092       2.74574112       0.00000000
Si       2.70783783      -2.70772773       0.01206609       0.00000000
Si      -2.70770751       0.00354470      -2.72026826       0.00000000
Si      -2.72064177      -2.71171878       0.02588538       0.00000000
Si      -2.71028133       2.72266499      -0.01285675       0.00000000
