10
Lattice="16.28999089631971 0.0 0.0 0.0 16.28999089631971 0.0 0.0 0.0 34.376317263855086" Properties=species:S:1:pos:R:3:initial_magmoms:R:1 pbc="T T T"
Si       1.32372540      -0.25772409      -1.91307750       0.00000000
Si       1.44741537       0.24874830       1.86673820       0.00000000
Si      -1.22738634       1.99917396       0.40980031       0.00000000
Si      -1.27324269      -2.02457007      -0.16559081       0.00000000
Si      -0.69432867      -1.43242857      -2.53257346       0.00000000
Si      -2.04652899       1.41959205       2.52140115       0.00000000
Si       2.72889658      -2.05218162      -1.24242955       0.00000000
Si       2.09891763       1.92155211      -2.40091209       0.00000000
Si      -0.05154156       0.78209919       3.67648043       0.00000000
Si       2.87507490       2.08132443       1.30970404       0.00000000
