10
Lattice="16.28999089631971 0.0 0.0 0.0 16.28999089631971 0.0 0.0 0.0 34.376317263855086" Properties=species:S:1:pos:R:3:initial_magmoms:R:1 pbc="T T T"
Si      -0.37797687      -0.23967477      -2.27096954       0.00000000
Si       2.20025772       0.59766381       0.53008311       0.00000000
Si      -0.92694987      -1.49616482       1.54910085       0.00000000
Si      -0.32189040       2.39252859      -0.18367277       0.00000000
Si       0.14033835       2.09258082      -2.64618725       0.00000000
Si      -2.02232205       0.19010430       2.77757361       0.00000000
Si       1.67049063       2.27732571       2.16949059       0.00000000
Si      -2.76236046      -2.54530403       0.48728457       0.00000000
Si       3.26322324       1.21498965      -1.54232871       0.00000000
Si       3.44770098      -1.14497523       1.38082868       0.00000000
