10
Lattice="16.28999089631971 0.0 0.0 0.0 16.28999089631971 0.0 0.0 0.0 34.376317263855086" Properties=species:S:1:pos:R:3:initial_magmoms:R:1 pbc="T T T"
Si      -1.35239810       1.35827649       1.35594022       0.00000000
Si      -1.35599030      -1.35746199      -1.35683400       0.00000000
Si       1.35846057       1.35751086      -1.35697151       0.00000000
Si       1.36026876      -1.35718506       1.36161231       0.00000000
Si      -2.71391630       2.71350675       0.00037814       0.00000000
Si      -2.71352534       0.00013032      -2.71445866       0.00000000
Si       0.00140420      -2.71471384      -2.71411489       0.00000000
Si       0.00130972       2.71500543      -2.71428678       0.00000000
Si       2.71668819       2.71303434       0.00041252       0.00000000
Si      -0.02542543       2.70430290       2.72542471       0.00000000
