10
Lattice="16.28999089631971 0.0 0.0 0.0 16.28999089631971 0.0 0.0 0.0 34.376317263855086" Properties=species:S:1:pos:R:3:initial_magmoms:R:1 pbc="T T T"
Si      -0.93237444      -1.76280606      -1.48540150       0.00000000
Si       1.84256190       0.95241114      -1.44714064       0.00000000
Si      -1.76590116       1.94450472      -0.21911477       0.00000000
Si       0.58456665      -1.07281053       2.62133316       0.00000000
Si      -2.08440487      -0.27096786      -2.94144561       0.00000000
Si       0.67544856       2.44881054      -2.94206438       0.00000000
Si       3.24907308       2.19107016       0.08889721       0.00000000
Si      -3.49087274      -1.18838808       1.37374716       0.00000000
Si      -3.51858203       1.05894774      -1.54030051       0.00000000
Si      -0.63325746       3.68114904      -1.47691054       0.00000000
