10
Lattice="16.28999089631971 0.0 0.0 0.0 16.28999089631971 0.0 0.0 0.0 34.376317263855086" Properties=species:S:1:pos:R:3:initial_magmoms:R:1 pbc="T T T"
Si       1.35324288       1.36042677      -1.38031304       0.00000000
Si      -1.35765747      -1.35744570      -1.37938488       0.00000000
Si       1.28912544      -1.44309852       1.40172950       0.00000000
Si      -1.54667034       1.20252780       1.42424600       0.00000000
Si      -0.59924394      -2.34315360       2.59479463       0.00000000
Si       2.69671176       2.71691136      -0.00646275       0.00000000
Si       2.71129131      -2.71363707      -0.01684440       0.00000000
Si      -2.45827503      -0.54876123       2.89428127       0.00000000
Si      -2.73176784       2.71292031       0.00735654       0.00000000
Si       2.71221984      -0.00114030      -2.73920962       0.00000000
