10
Lattice="16.28999089631971 0.0 0.0 0.0 16.28999089631971 0.0 0.0 0.0 34.376317263855086" Properties=species:S:1:pos:R:3:initial_magmoms:R:1 pbc="T T T"
Si      -1.36772469      -1.85368797       0.59976394       0.00000000
Si       1.13340933      -0.51038199       2.03157273       0.00000000
Si      -0.58901382       2.26286019      -0.57415357       0.00000000
Si       0.93797820      -0.76957218      -2.08688426       0.00000000
Si       2.77203672      -1.67562198       0.86772749       0.00000000
Si      -2.95578792      -0.12334788      -1.89537369       0.00000000
Si      -2.16407763      -2.34541791      -1.51881530       0.00000000
Si      -1.68463035       1.78714332      -2.59390085       0.00000000
Si       3.14089119      -1.22800536      -1.40657656       0.00000000
Si       1.16818848       1.46367279       3.24990447       0.00000000
