10
Lattice="16.28999089631971 0.0 0.0 0.0 16.28999089631971 0.0 0.0 0.0 34.376317263855086" Properties=species:S:1:pos:R:3:initial_magmoms:R:1 pbc="T T T"
Si      -1.27312866      -1.38186441       1.40220187       0.00000000
Si      -0.89920800      -0.74270997      -2.09186883       0.00000000
Si       1.44073647       1.46119671       1.25465519       0.00000000
Si       1.28347281       2.20763709      -2.61902995       0.00000000
Si      -2.62355337       0.05222574       2.79370784       0.00000000
Si       0.10981089      -2.65052961       2.81483554       0.00000000
Si       0.72295020      -2.01953646      -3.28888724       0.00000000
Si       0.09656712       2.77061949       2.79206465       0.00000000
Si       2.80308546       0.06449211       2.78623099       0.00000000
Si      -2.00386548      -3.46423140       0.28247177       0.00000000
