10
Lattice="16.28999089631971 0.0 0.0 0.0 16.28999089631971 0.0 0.0 0.0 34.376317263855086" Properties=species:S:1:pos:R:3:initial_magmoms:R:1 pbc="T T T"
Si       1.57698603       1.71620037      -0.30038043       0.00000000
Si      -0.22876047      -1.60130700      -1.71066963       0.00000000
Si      -1.81095441       1.58428395       0.39481222       0.00000000
Si       0.50740092      -1.46507373       1.90908985       0.00000000
Si      -0.91473237       1.93520313       2.58568490       0.00000000
Si       0.90275922       3.10642155       1.56921101       0.00000000
Si       0.96690924      -3.40835670      -0.73163157       0.00000000
Si      -0.60118245      -0.24267213       3.59198340       0.00000000
Si       1.31383737       2.37170997      -2.59984795       0.00000000
Si      -2.54069917      -2.09526867      -1.84955003       0.00000000
