10
Lattice="16.28999089631971 0.0 0.0 0.0 16.28999089631971 0.0 0.0 0.0 34.376317263855086" Properties=species:S:1:pos:R:3:initial_magmoms:R:1 pbc="T T T"
Si      -1.10858337       1.22240160       1.68289355       0.00000000
Si      -0.62121915      -2.25210879      -0.53819592       0.00000000
Si       2.30542596      -0.23498325       0.73723491       0.00000000
Si      -0.50740092       1.46507373      -1.90908985       0.00000000
Si       0.45950832      -1.94328297      -2.64072142       0.00000000
Si      -0.73616139      -0.13623327      -3.61975948       0.00000000
Si      -1.42213329       3.40027686       0.67659505       0.00000000
Si      -3.28418780       0.30198402       1.90785230       0.00000000
Si       3.37361013       1.84466331       0.38776508       0.00000000
Si       0.10306683      -3.72919802       1.19024627       0.00000000
