10
Lattice="16.28999089631971 0.0 0.0 0.0 16.28999089631971 0.0 0.0 0.0 34.376317263855086" Properties=species:S:1:pos:R:3:initial_magmoms:R:1 pbc="T T T"
Si      -1.36081610       1.35329175      -1.36229984       0.00000000
Si       1.35764118      -1.36216980      -1.36247172       0.00000000
Si       1.37538099       1.34887716       1.36192170       0.00000000
Si      -1.38447244      -1.37090124       1.36254047       0.00000000
Si       2.54249433      -0.14752224       2.85684544       0.00000000
Si       0.06667497       2.58121566       2.82707554       0.00000000
Si      -2.71258541       2.71358820      -0.00254385       0.00000000
Si       2.71647153       2.71176372      -0.00275011       0.00000000
Si      -2.71144511      -2.71692765      -0.00694402       0.00000000
Si       2.71453302      -2.71564074      -0.00429704       0.00000000
