10
Lattice="16.28999089631971 0.0 0.0 0.0 16.28999089631971 0.0 0.0 0.0 34.376317263855086" Properties=species:S:1:pos:R:3:initial_magmoms:R:1 pbc="T T T"
Si       1.35583299       1.35655055       1.35679962       0.00000000
Si       1.35744570      -1.35722891      -1.35738402       0.00000000
Si      -1.35746362       1.35827078      -1.35734965       0.00000000
Si      -1.35959761      -1.35788051       1.35693713       0.00000000
Si      -2.71191752       0.00213354       2.71521494       0.00000000
Si       2.71454931       0.00003696      -2.71383988       0.00000000
Si       0.00167787      -2.71506557      -2.71366800       0.00000000
Si      -2.71458679      -2.71452800       0.00020626       0.00000000
Si       2.71510317      -2.71447913      -0.00020626       0.00000000
Si      -2.71522191       0.00098449      -2.71469929       0.00000000
