10
Lattice="16.28999089631971 0.0 0.0 0.0 16.28999089631971 0.0 0.0 0.0 34.376317263855086" Properties=species:S:1:pos:R:3:initial_magmoms:R:1 pbc="T T T"
Si       1.01897208       1.77750194       1.23191039       0.00000000
Si       1.45891611      -1.18615635      -1.48395769       0.00000000
Si      -1.25301865       1.50439357      -1.47979816       0.00000000
Si      -1.55503363      -1.55929509       1.40791724       0.00000000
Si       2.64365523      -2.55958254       0.00415954       0.00000000
Si       2.40371982       0.49261516       2.83016941       0.00000000
Si       0.11002266      -2.54229885      -2.85131085       0.00000000
Si      -2.69034956       2.72876138      -0.06163677       0.00000000
Si      -2.60090117       0.17252192      -2.85457660       0.00000000
Si      -0.93173913       3.51662723       1.31389796       0.00000000
