10
Lattice="16.28999089631971 0.0 0.0 0.0 16.28999089631971 0.0 0.0 0.0 34.376317263855086" Properties=species:S:1:pos:R:3:initial_magmoms:R:1 pbc="T T T"
Si       0.01603913      -2.21659659      -0.72571884       0.00000000
Si      -0.33070003      -0.12466737       2.36557322       0.00000000
Si      -1.84954446       1.13611347      -1.07199168       0.00000000
Si       2.21559964       0.79382799      -0.80646885       0.00000000
Si      -0.99258065       3.19814144      -1.80465454       0.00000000
Si       0.55336804       1.86594524       3.32058222       0.00000000
Si       0.10697317      -2.31555834      -3.08486368       0.00000000
Si       2.11859269      -3.23882667      -0.23595917       0.00000000
Si       0.38543443       3.88922840       0.05603343       0.00000000
Si       2.55363343       3.03318890      -0.22836200       0.00000000
