10
Lattice="16.28999089631971 0.0 0.0 0.0 16.28999089631971 0.0 0.0 0.0 34.376317263855086" Properties=species:S:1:pos:R:3:initial_magmoms:R:1 pbc="T T T"
Si       1.35443205      -1.35924900      -1.36157794       0.00000000
Si      -1.36026876       1.35718506      -1.36161231       0.00000000
Si       1.34978940       1.36648665       1.37849109       0.00000000
Si      -1.36543595      -1.38179436       1.37161583       0.00000000
Si      -0.23366376       2.56964976       2.81985650       0.00000000
Si       2.62642041      -0.07900650       2.78142376       0.00000000
Si      -2.71331846      -2.71366602      -0.00316262       0.00000000
Si      -2.71266686       2.71546155      -0.00567210       0.00000000
Si       2.71331127       2.71674846      -0.00302512       0.00000000
Si       2.71696023      -2.71336120       0.00075628       0.00000000
