10
Lattice="16.2900001489832 0.0 0.0 0.0 16.2900001489832 0.0 0.0 0.0 29.20704162538098" Properties=species:S:1:pos:R:3:initial_magmoms:R:1 pbc="T T T"
H       -0.90228682       1.07874010       0.54687265       0.00000000
Si       2.22467645       0.63291538       0.18055793       0.00000000
Si      -0.29186793      -0.28756737      -2.31369422       0.00000000
Si      -0.18169866      -2.06692409       1.14187850       0.00000000
H       -2.77227784       0.30397140      -0.50405512       0.00000000
Si       2.00922491       2.45289935       1.60218148       0.00000000
Si      -2.37020968      -2.66734091       0.33821754       0.00000000
Si       3.34624296      -1.38492694       0.76832044       0.00000000
Si       1.80025679      -3.27052704       0.35647194       0.00000000
Si       2.78710500       1.69055993      -1.86977639       0.00000000
