10
Lattice="16.2900001489832 0.0 0.0 0.0 16.2900001489832 0.0 0.0 0.0 29.20704162538098" Properties=species:S:1:pos:R:3:initial_magmoms:R:1 pbc="T T T"
Si      -0.88037677      -1.64416601      -1.41703804       0.00000000
Si      -0.56242855      -1.05764455       2.05033432       0.00000000
Si       2.30956364       0.56286838       0.02321960       0.00000000
Si      -1.21547836       2.07555779      -0.15783485       0.00000000
Si       2.23552559       2.42101982      -1.46003080       0.00000000
Si       0.60457078       3.57396087      -0.23041435       0.00000000
Si      -0.77788009       0.76233943       3.47195787       0.00000000
Si      -2.03955689       2.21131865       2.05848309       0.00000000
Si      -3.07897293      -1.97812730      -0.44391783       0.00000000
Si      -2.78710500      -1.69055993       1.86977639       0.00000000
