10
Lattice="16.2900001489832 0.0 0.0 0.0 16.2900001489832 0.0 0.0 0.0 29.20704162538098" Properties=species:S:1:pos:R:3:initial_magmoms:R:1 pbc="T T T"
Si       0.67533454       0.95503384      -2.00629010       0.00000000
Si       0.96247837       1.04989051       1.88695013       0.00000000
Si       1.26706879      -2.02541717       0.07395223       0.00000000
Si      -2.32556042       0.20917989      -0.55902278       0.00000000
Si      -2.73934271      -2.18813798      -0.22930448       0.00000000
Si       1.03651642      -0.80826094       3.37020053       0.00000000
Si       3.13532004      -1.51966153      -1.24670257       0.00000000
Si      -0.59240215       2.89380450      -2.34991095       0.00000000
Si      -1.27304722      -1.37112931       3.34698094       0.00000000
Si      -0.21947517      -0.32444793      -3.82013501       0.00000000
