10
Lattice="16.2900001489832 0.0 0.0 0.0 16.2900001489832 0.0 0.0 0.0 29.20704162538098" Properties=species:S:1:pos:R:3:initial_magmoms:R:1 pbc="T T T"
Si      -1.23528700       1.49105629      -1.38418012       0.00000000
Si       2.37801422       0.03238452      -0.18803493       0.00000000
Si      -0.71948044       1.03140136       2.06289335       0.00000000
Si      -0.76025431      -2.23529753      -0.52858904       0.00000000
Si      -3.22023981       0.23939784      -1.28817657       0.00000000
H        1.40312287       1.48186873      -2.86655431       0.00000000
Si       1.07527033      -3.46406853       0.33541367       0.00000000
Si       2.60641631       0.60606946      -2.51560250       0.00000000
Si      -0.32633757       3.32897556       1.54692175       0.00000000
Si      -2.62850555      -2.74105317       0.79206576       0.00000000
