10
Lattice="16.2900001489832 0.0 0.0 0.0 16.2900001489832 0.0 0.0 0.0 29.20704162538098" Properties=species:S:1:pos:R:3:initial_magmoms:R:1 pbc="T T T"
Si      -1.40903614      -1.39043296       1.25519014       0.00000000
Si      -1.33446052       1.25514451      -1.47835238       0.00000000
Si       1.23085612      -1.25441146      -1.58067049       0.00000000
Si       1.38860848       1.35920503       1.35414360       0.00000000
Si       2.13298004       0.58283992      -2.80325038       0.00000000
Si       0.39268674       2.27177084      -2.72747622       0.00000000
Si      -0.51896682      -2.21407166      -2.87293313       0.00000000
Si      -2.28968984      -0.46519353      -2.83413432       0.00000000
Si       2.60441264      -2.68141547      -0.24197742       0.00000000
Si      -2.74781352       0.00009774       2.58320511       0.00000000
