10
Lattice="16.2900001489832 0.0 0.0 0.0 16.2900001489832 0.0 0.0 0.0 29.20704162538098" Properties=species:S:1:pos:R:3:initial_magmoms:R:1 pbc="T T T"
Si       0.82407853      -0.13576086      -2.21631794       0.00000000
Si      -2.33228005       0.28258263       0.39067339       0.00000000
Si       1.26167680      -1.44897922       1.41347478       0.00000000
Si       1.10003113       1.86149090       1.03337434       0.00000000
H       -1.64983493      -2.82313848       0.35816595       0.00000000
Si      -2.06597927       0.07276743       2.74157738       0.00000000
Si      -2.40669928       2.50862744      -0.37329520       0.00000000
Si       3.18314748       1.51975927      -0.03720977       0.00000000
Si      -0.26904564      -1.37251396       3.24992594       0.00000000
Si       1.47712834      -3.26896320      -0.00814876       0.00000000
