10
Lattice="16.2900001489832 0.0 0.0 0.0 16.2900001489832 0.0 0.0 0.0 29.20704162538098" Properties=species:S:1:pos:R:3:initial_magmoms:R:1 pbc="T T T"
Si       2.33385203       0.33402059      -0.31318711       0.00000000
Si      -0.56951470      -0.80749531      -2.17323755       0.00000000
Si      -0.91924471      -1.79393627       1.28268565       0.00000000
Si      -0.97386508       2.06053841       0.89507900       0.00000000
Si      -2.91314073      -0.58849255       1.91642004       0.00000000
Si       2.19817262       1.54473184      -2.37383152       0.00000000
Si       0.16495254       0.98987978      -3.50878795       0.00000000
Si      -2.97834960      -1.10615617      -1.89839929       0.00000000
Si       0.92422945      -2.67721265      -2.58391777       0.00000000
Si       3.47931760      -1.73359811      -0.07024294       0.00000000
