10
Lattice="16.2900001489832 0.0 0.0 0.0 16.2900001489832 0.0 0.0 0.0 29.20704162538098" Properties=species:S:1:pos:R:3:initial_magmoms:R:1 pbc="T T T"
Si      -0.73446724      -1.79737509       1.33555039       0.00000000
Si       2.03322008       0.55485207       1.13495643       0.00000000
Si      -1.70916311       1.54507231       0.70050169       0.00000000
Si       0.42334452       0.26535433      -2.44252648       0.00000000
Si      -0.39366414       3.47703374       0.53297010       0.00000000
Si      -2.68615586       1.90804609      -1.40386566       0.00000000
Si      -0.16495254      -0.98987978       3.50878795       0.00000000
Si       1.57902229       2.80375175       1.80426500       0.00000000
Si       2.69444585       1.17551736      -2.41028190       0.00000000
Si       3.77977036       0.27914544      -0.46874381       0.00000000
