10
Lattice="16.2900001489832 0.0 0.0 0.0 16.2900001489832 0.0 0.0 0.0 29.20704162538098" Properties=species:S:1:pos:R:3:initial_magmoms:R:1 pbc="T T T"
Si      -1.39523851      -1.33827238       1.28702873       0.00000000
Si      -1.25305939       1.35736426      -1.41770396       0.00000000
Si       1.34325712      -1.31284369      -1.41530314       0.00000000
Si       1.37902996       1.44122518       1.28819702       0.00000000
Si       0.63894268       2.06513219      -2.65465459       0.00000000
Si       2.39850704       0.27968301      -2.79224108       0.00000000
Si      -2.71557560       0.16871553       2.52251580       0.00000000
Si       2.74320345      -2.57077379      -0.00933749       0.00000000
Si       0.00583182      -2.59957451       2.73514306       0.00000000
Si      -2.58564656       0.02515176      -2.77935990       0.00000000
