10
Lattice="16.2900001489832 0.0 0.0 0.0 16.2900001489832 0.0 0.0 0.0 29.20704162538098" Properties=species:S:1:pos:R:3:initial_magmoms:R:1 pbc="T T T"
Si      -0.65291950       1.07997488      -0.84592355       0.00000000
Si       2.64103256      -0.04666759      -0.44263272       0.00000000
H       -0.04496040      -1.83969813       2.33300007       0.00000000
Si       0.32746158       2.96264278       0.17401555       0.00000000
Si      -2.90882388       1.02282956       0.07596752       0.00000000
Si       0.18700920       0.57591341      -3.13803376       0.00000000
Si       1.98992126      -2.15591962      -1.37346113       0.00000000
Si      -2.43880850       0.22949026       2.29865259       0.00000000
Si       2.52405407       2.27810439       0.31978790       0.00000000
Si       3.01931895      -0.94894627       1.68495423       0.00000000
