10
Lattice="16.2900001489832 0.0 0.0 0.0 16.2900001489832 0.0 0.0 0.0 29.20704162538098" Properties=species:S:1:pos:R:3:initial_magmoms:R:1 pbc="T T T"
H       -0.59670271       0.03464883      -1.50394038       0.00000000
Si      -1.89200207      -0.70776793       1.23695063       0.00000000
Si       0.70558507       2.09005589       0.97655525       0.00000000
H        2.06661458       0.56891197      -1.11986778       0.00000000
Si       1.75956437      -1.78544918      -0.13758649       0.00000000
Si       2.05420160       0.78509656       2.49583254       0.00000000
Si      -1.03195522       0.03432303      -3.19394743       0.00000000
Si      -0.63894268      -2.06513219       2.65465459       0.00000000
Si       3.39934836      -0.66169981       1.16704942       0.00000000
Si       0.70431445      -3.37797588       1.23935145       0.00000000
