10
Lattice="16.2900001489832 0.0 0.0 0.0 16.2900001489832 0.0 0.0 0.0 29.20704162538098" Properties=species:S:1:pos:R:3:initial_magmoms:R:1 pbc="T T T"
Si       1.74655028      -0.27570662      -1.60370024       0.00000000
Si      -0.45419778       2.24889968       0.66930857       0.00000000
Si      -2.03322008      -0.55485207      -1.13495643       0.00000000
Si       0.13567941      -1.21071126       2.06064441       0.00000000
Si      -2.19817262      -1.54473184       2.37383152       0.00000000
Si      -2.76768732      -2.35222715       0.20059396       0.00000000
Si       0.66122577       0.62066530      -3.54523833       0.00000000
Si       0.74843428       3.53740611      -0.84449240       0.00000000
Si       1.32306404       0.25886765       3.53551239       0.00000000
Si       2.27118440      -2.59164128      -1.56581871       0.00000000
