10
Lattice="16.2900001489832 0.0 0.0 0.0 16.2900001489832 0.0 0.0 0.0 29.20704162538098" Properties=species:S:1:pos:R:3:initial_magmoms:R:1 pbc="T T T"
Si      -1.14559426       0.47335482      -1.96189540       0.00000000
Si      -1.55848060      -1.41608971       1.07353402       0.00000000
Si       0.65111131       2.10925203       0.93082842       0.00000000
Si       1.99389602      -1.20544372      -0.63373439       0.00000000
H       -2.44934813      -0.30895614      -1.89103912       0.00000000
H       -1.98992126       2.15591962       1.37346113       0.00000000
Si       1.93927565       2.64903095      -1.02134104       0.00000000
Si       1.02939769       1.20697335       3.05841536       0.00000000
Si      -0.26498943      -3.35787402       0.78085026       0.00000000
Si       0.79428412      -3.16752537      -1.31764648       0.00000000
