10
Lattice="16.2900001489832 0.0 0.0 0.0 16.2900001489832 0.0 0.0 0.0 29.20704162538098" Properties=species:S:1:pos:R:3:initial_magmoms:R:1 pbc="T T T"
Si       1.42607548      -1.40190112      -1.24495015       0.00000000
Si       1.44638911       1.40645418       1.26171499       0.00000000
Si      -1.33708321       1.33392621      -1.45778186       0.00000000
Si      -1.32802597      -1.41387427       1.42109782       0.00000000
Si      -0.00431685       2.49587237       2.73874429       0.00000000
Si      -2.62795169       2.65644290       0.02993722       0.00000000
Si      -2.64176561      -2.72437220      -0.02091224       0.00000000
Si       2.77737987      -0.06263505      -2.63783396       0.00000000
Si       0.12535155      -2.70594821      -2.71591899       0.00000000
Si       2.71704170       0.12595184       2.75197508       0.00000000
