10
Lattice="16.2900001489832 0.0 0.0 0.0 16.2900001489832 0.0 0.0 0.0 29.20704162538098" Properties=species:S:1:pos:R:3:initial_magmoms:R:1 pbc="T T T"
H       -0.34635798       1.54155529      -0.50688821       0.00000000
Si       0.53901981       0.15711705       2.25168767       0.00000000
Si       1.63095481      -1.15294105      -1.22961645       0.00000000
Si      -1.82004914      -1.49840308       0.07257950       0.00000000
H        1.85357396       2.05048748      -0.36397815       0.00000000
Si      -0.44334864       3.02169729      -1.63068755       0.00000000
Si       1.70499287      -3.01109250       0.25363395       0.00000000
H       -0.77085910       3.27275633       0.88809851       0.00000000
Si      -0.60457078      -3.57396087       0.23041435       0.00000000
Si      -2.94676329      -0.90287326      -1.95996774       0.00000000
