10
Lattice="16.2900001489832 0.0 0.0 0.0 16.2900001489832 0.0 0.0 0.0 29.20704162538098" Properties=species:S:1:pos:R:3:initial_magmoms:R:1 pbc="T T T"
Si       1.45119466      -1.00121599       1.58676016       0.00000000
Si       0.91924471       1.79393627      -1.28268565       0.00000000
Si      -1.19961190      -1.96208165      -0.68391209       0.00000000
Si      -1.99389602       1.20544372       0.63373439       0.00000000
Si      -0.43984629      -1.69412744       2.89801029       0.00000000
Si      -2.25888545      -2.15243030       1.41458465       0.00000000
Si       0.34973001       0.98644096      -3.45592320       0.00000000
Si      -3.13949028       1.67879855      -1.32816101       0.00000000
Si      -2.05910489       0.68778010      -3.18108494       0.00000000
Si       3.03761262       0.64418806       2.28623960       0.00000000
