10
Lattice="16.2900001489832 0.0 0.0 0.0 16.2900001489832 0.0 0.0 0.0 29.20704162538098" Properties=species:S:1:pos:R:3:initial_magmoms:R:1 pbc="T T T"
Si      -1.31818681      -1.33217992      -1.41874373       0.00000000
Si       1.30390048      -1.43413903       1.36233325       0.00000000
Si      -1.37727064       1.35171163       1.38768496       0.00000000
Si       1.31706280       1.32087466      -1.48686331       0.00000000
Si       2.55608021      -2.68667714      -0.22036713       0.00000000
Si       2.79766092      -0.02013444       2.54010720       0.00000000
Si      -2.68236029       2.67981905      -0.12120922       0.00000000
Si      -2.68646537      -2.71855667      -0.05044056       0.00000000
Si       2.66266568       2.75250504      -0.19887075       0.00000000
Si       0.01016496       2.70130556       2.76152579       0.00000000
