10
Lattice="16.2900001489832 0.0 0.0 0.0 16.2900001489832 0.0 0.0 0.0 29.20704162538098" Properties=species:S:1:pos:R:3:initial_magmoms:R:1 pbc="T T T"
Si       1.23302269       0.98999218       1.75014435       0.00000000
Si      -2.27815652      -0.20284308       0.75123432       0.00000000
Si       1.31274595      -2.07731711       0.08642364       0.00000000
Si      -0.42288840       1.27104355      -2.08380559       0.00000000
H        1.49139838      -0.34174791      -2.40695230       0.00000000
H       -1.42267087      -2.73362492      -0.39575541       0.00000000
Si       1.95805802      -1.75037681      -2.12522118       0.00000000
Si      -1.98835742       2.79353955      -1.09792190       0.00000000
H       -1.24352974       2.15014970       2.71640091       0.00000000
Si       0.00008145       2.92995201       2.27879180       0.00000000
