10
Lattice="16.2900001489832 0.0 0.0 0.0 16.2900001489832 0.0 0.0 0.0 29.20704162538098" Properties=species:S:1:pos:R:3:initial_magmoms:R:1 pbc="T T T"
Si      -1.45300285       1.39057957       1.24798768       0.00000000
Si      -1.37902996      -1.44122518      -1.28819702       0.00000000
Si       1.30508965      -1.32810742       1.50889418       0.00000000
Si       1.31411431       1.40900356      -1.44701907       0.00000000
Si       2.61483824       2.71305065       0.02394977       0.00000000
Si      -2.63208935      -0.08386092      -2.70590097       0.00000000
Si       2.68236029      -2.67981905       0.12120922       0.00000000
Si      -0.13926321       2.70107750       2.68999774       0.00000000
Si       2.65926107      -0.03779280      -2.77580219       0.00000000
Si      -0.03577284      -2.75406888      -2.70350016       0.00000000
