10
Lattice="16.2900001489832 0.0 0.0 0.0 16.2900001489832 0.0 0.0 0.0 29.20704162538098" Properties=species:S:1:pos:R:3:initial_magmoms:R:1 pbc="T T T"
Si       0.26248077      -0.01397682       2.29286960       0.00000000
Si       0.25497108       2.27012392      -0.46979526       0.00000000
Si      -2.33950466      -0.00070047      -0.18353705       0.00000000
Si       0.77962312      -1.83642059      -1.26393473       0.00000000
H       -0.79151482      -1.09227709       2.51796827       0.00000000
H       -2.80930827       1.37937205       0.17825058       0.00000000
Si      -2.33290721      -0.35293914      -2.45467661       0.00000000
Si      -1.03941604      -2.29472345      -2.74736037       0.00000000
Si      -1.05798664       3.30865216       1.35208158       0.00000000
Si      -0.77442661       1.06315057      -3.52821063       0.00000000
