10
Lattice="16.2900001489832 0.0 0.0 0.0 16.2900001489832 0.0 0.0 0.0 29.20704162538098" Properties=species:S:1:pos:R:3:initial_magmoms:R:1 pbc="T T T"
Si       1.43589835       0.81694351       1.62849702       0.00000000
Si      -1.99982558       0.96651829       0.71738336       0.00000000
Si       0.39394107       1.19602810      -1.98824015       0.00000000
Si      -0.54231039      -2.25864110      -0.59588206       0.00000000
H        1.64260217      -2.09626238       1.36014272       0.00000000
H        1.34420194      -0.12945663       2.78559239       0.00000000
Si      -2.20247318      -1.48973680      -2.04563199       0.00000000
Si      -3.49927122      -0.04430880      -0.73855846       0.00000000
H        1.24942672      -1.33475374      -3.13522988       0.00000000
Si      -1.25750656       0.20932650      -3.39838533       0.00000000
