10
Lattice="16.2900001489832 0.0 0.0 0.0 16.2900001489832 0.0 0.0 0.0 29.20704162538098" Properties=species:S:1:pos:R:3:initial_magmoms:R:1 pbc="T T T"
Si      -1.39613446       1.25069734      -1.47664961       0.00000000
Si      -1.51037623      -1.25385760       1.36852514       0.00000000
Si       0.91900036       1.84767698       1.21404910       0.00000000
Si       1.43565400      -1.42889365      -1.28391234       0.00000000
H       -2.50678667      -0.21533751       1.87985282       0.00000000
Si      -2.79355584       2.53588061      -0.02722096       0.00000000
Si      -0.97125868       3.43857305       1.21632725       0.00000000
Si       0.04821840      -2.77848759      -2.65775317       0.00000000
Si       2.64893321       2.79052345      -0.14577234       0.00000000
Si      -2.76977244      -2.70692561      -0.02006524       0.00000000
