10
Lattice="16.2900001489832 0.0 0.0 0.0 16.2900001489832 0.0 0.0 0.0 29.20704162538098" Properties=species:S:1:pos:R:3:initial_magmoms:R:1 pbc="T T T"
Si      -0.39394107      -1.19602810       1.98824015       0.00000000
Si      -1.65144764      -0.98670160      -1.41014518       0.00000000
Si      -1.28388007       1.97390819      -0.43544778       0.00000000
Si       2.27815652       0.20284308      -0.75123432       0.00000000
H        0.85548565      -2.53078184      -1.14698973       0.00000000
H        1.03462678       2.35299278       1.96516659       0.00000000
Si       0.28979910       2.99638263      -1.84915622       0.00000000
Si      -3.13092174       0.89186122      -1.49031851       0.00000000
Si      -2.39376665      -0.22950981       2.70562351       0.00000000
Si       1.85526812       1.47388663      -2.83503991       0.00000000
