10
Lattice="16.2900001489832 0.0 0.0 0.0 16.2900001489832 0.0 0.0 0.0 29.20704162538098" Properties=species:S:1:pos:R:3:initial_magmoms:R:1 pbc="T T T"
Si      -1.42607548       1.40190112       1.24495015       0.00000000
Si      -1.30072393      -1.30404709      -1.47096884       0.00000000
Si       1.35130438       1.33926607      -1.39288382       0.00000000
Si       1.36568845      -1.35159760       1.37524276       0.00000000
Si       0.02031363       2.80835530       2.50666514       0.00000000
Si      -2.61483824      -2.71305065      -0.02394977       0.00000000
Si       2.73018773      -2.64036467      -0.10161130       0.00000000
Si      -2.75410146      -0.01197315       2.66604797       0.00000000
Si       2.68768712       0.04588893       2.74297931       0.00000000
Si      -0.00746082       2.68022630      -2.75178232       0.00000000
