10
Lattice="16.2900001489832 0.0 0.0 0.0 16.2900001489832 0.0 0.0 0.0 29.20704162538098" Properties=species:S:1:pos:R:3:initial_magmoms:R:1 pbc="T T T"
Si      -1.50898018      -0.02472822       1.77304267       0.00000000
Si       0.53841708      -2.22718511      -0.64775377       0.00000000
Si       2.08886672       1.03549015       0.54278366       0.00000000
Si      -1.37289026       1.10271898      -1.65933966       0.00000000
Si      -0.02283858      -1.73047043      -2.92304073       0.00000000
Si      -2.72381834      -1.91169668       0.92121930       0.00000000
Si       3.08858403       0.57246319      -1.69628656       0.00000000
Si       2.40549545      -0.37028799       2.70483492       0.00000000
Si      -2.42863605       2.16751484       1.67920044       0.00000000
Si      -0.97463885      -3.47288142       0.70853362       0.00000000
