10
Lattice="16.2900001489832 0.0 0.0 0.0 16.2900001489832 0.0 0.0 0.0 29.20704162538098" Properties=species:S:1:pos:R:3:initial_magmoms:R:1 pbc="T T T"
Si       0.81586837      -1.60419034       1.51146440       0.00000000
Si      -0.77962312       1.83642059       1.26393473       0.00000000
Si      -1.81903916      -0.45830286      -1.48342564       0.00000000
Si       1.89104096       0.69291145      -1.31125013       0.00000000
Si       0.43984629       1.69412744      -2.89801029       0.00000000
Si       2.25137576      -0.09467748       2.69081554       0.00000000
Si      -3.11253033       1.48348144      -1.19074188       0.00000000
Si      -0.75976561      -0.26795421      -3.58192238       0.00000000
Si      -3.11912778       1.83572012       1.08039768       0.00000000
Si       2.45838908      -2.87306733       0.24700395       0.00000000
