10
Lattice="16.2900001489832 0.0 0.0 0.0 16.2900001489832 0.0 0.0 0.0 29.20704162538098" Properties=species:S:1:pos:R:3:initial_magmoms:R:1 pbc="T T T"
Si       1.35358335       1.18346851       1.54063932       0.00000000
Si       1.23882519      -0.82564237      -1.88458436       0.00000000
Si      -1.28673082       1.58785147      -1.26519063       0.00000000
Si      -1.26008038      -1.42605919       1.49715295       0.00000000
Si       2.29858418       3.01094589       0.37816051       0.00000000
Si      -2.02479815       0.46791396      -3.23400810       0.00000000
Si      -0.05711274       2.45781893       2.97227796       0.00000000
Si      -0.24130377      -0.98749981      -3.74904507       0.00000000
Si      -2.72404640      -0.15372873       2.86636446       0.00000000
Si       2.80447014      -0.23014512       2.81550040       0.00000000
