10
Lattice="16.2900001489832 0.0 0.0 0.0 16.2900001489832 0.0 0.0 0.0 29.20704162538098" Properties=species:S:1:pos:R:3:initial_magmoms:R:1 pbc="T T T"
Si      -1.33729498       0.98650612      -1.72225162       0.00000000
Si       1.21779317       1.93012067       0.79142321       0.00000000
Si      -0.99838153      -1.79678702       1.27301812       0.00000000
Si       1.78329890      -1.25804413      -1.04929218       0.00000000
Si       0.32119743       1.25993377      -3.45019862       0.00000000
Si       1.24085329      -0.93230929      -3.35635640       0.00000000
Si      -0.60193180      -3.66433779      -0.20573440       0.00000000
Si      -0.39172563      -1.20500389       3.50344306       0.00000000
Si       2.99530749       2.11147724      -0.82378461       0.00000000
Si      -2.53552223      -0.73902844      -2.77168984       0.00000000
