10
Lattice="16.2900001489832 0.0 0.0 0.0 16.2900001489832 0.0 0.0 0.0 29.20704162538098" Properties=species:S:1:pos:R:3:initial_magmoms:R:1 pbc="T T T"
Si      -1.77109769       1.05194305       1.14909264       0.00000000
Si       1.50079771       1.82508275      -0.16653855       0.00000000
Si      -0.83214208      -0.18757935      -2.22081582       0.00000000
Si       1.00338256      -2.08502228       0.59255246       0.00000000
Si      -1.99811513       2.98063020      -0.22276211       0.00000000
Si       3.08444637      -2.02510766      -0.60078885       0.00000000
Si       0.20730654       3.76686705       0.12614521       0.00000000
Si       0.34595073      -1.77969881      -3.41190819       0.00000000
Si      -3.14170572      -0.75044773      -2.24403542       0.00000000
Si      -0.34288821      -3.90663526      -0.37744260       0.00000000
