10
Lattice="16.2900001489832 0.0 0.0 0.0 16.2900001489832 0.0 0.0 0.0 29.20704162538098" Properties=species:S:1:pos:R:3:initial_magmoms:R:1 pbc="T T T"
Si      -0.32298183       0.63640958       2.26707978       0.00000000
Si      -2.12291282      -0.30561669      -1.05443262       0.00000000
Si       1.27459477       1.80245594      -0.95025110       0.00000000
Si       0.41720319      -2.37280142      -0.48261716       0.00000000
Si      -0.14369409      -2.44354889      -2.82715401       0.00000000
Si      -1.66747700      -0.76066156      -3.30898257       0.00000000
H        3.66844287      -0.26673246      -0.91590362       0.00000000
H       -1.66964357       3.33001812      -0.73315516       0.00000000
Si      -2.03804192       2.37873098       2.28109916       0.00000000
Si      -1.22525236      -1.18035712       3.49211072       0.00000000
