10
Lattice="16.2900001489832 0.0 0.0 0.0 16.2900001489832 0.0 0.0 0.0 29.20704162538098" Properties=species:S:1:pos:R:3:initial_magmoms:R:1 pbc="T T T"
Si       0.04253319       2.10667169       1.04905852       0.00000000
Si       1.79693363      -1.44528139       0.50834856       0.00000000
Si      -0.26630078       0.20981520      -2.35090399       0.00000000
Si      -1.66287181      -0.84160657       1.49992762       0.00000000
Si       2.55925676       0.23374521       2.03695750       0.00000000
Si      -2.21622194       2.48129282       0.46258113       0.00000000
Si       2.06597927      -0.07276743      -2.74157738       0.00000000
Si       0.49345668      -3.39620439       1.15729982       0.00000000
Si      -1.85254769      -3.03541347       0.71752939       0.00000000
Si       0.90963361       1.52124166       3.20395405       0.00000000
