10
Lattice="16.2900001489832 0.0 0.0 0.0 16.2900001489832 0.0 0.0 0.0 29.20704162538098" Properties=species:S:1:pos:R:3:initial_magmoms:R:1 pbc="T T T"
Si      -0.81424425      -1.74775412      -1.29591644       0.00000000
Si       1.36036325       1.16970346      -1.58188258       0.00000000
Si      -1.84811518       1.06487731       1.11690648       0.00000000
Si       1.37289026      -1.10271898       1.65933966       0.00000000
Si       1.35005168      -2.83318941      -1.26370107       0.00000000
Si      -0.13608992      -1.12744720       3.43238232       0.00000000
Si      -1.05574579       1.06479586       3.33854010       0.00000000
Si       2.78819805       2.51972093      -0.20158700       0.00000000
Si      -1.94670226      -3.22142898       0.21008625       0.00000000
Si      -2.25987751      -0.68053105      -2.98808481       0.00000000
