10
Lattice="16.2900001489832 0.0 0.0 0.0 16.2900001489832 0.0 0.0 0.0 29.20704162538098" Properties=species:S:1:pos:R:3:initial_magmoms:R:1 pbc="T T T"
Si       1.60236586      -1.15369039      -1.31466736       0.00000000
Si      -1.19291671      -1.46129446       1.48714954       0.00000000
Si       1.50698791       1.10045467       1.52413442       0.00000000
Si      -1.51316182       1.33670854      -1.42854561       0.00000000
Si      -2.75317293       2.60876207       0.32334123       0.00000000
Si      -3.03238353      -2.40443660       0.31715401       0.00000000
Si       0.22677309       2.41135985       3.03812523       0.00000000
Si       2.99538894       0.43381899      -2.48417572       0.00000000
Si      -0.05911641       2.61478937      -2.92937865       0.00000000
Si      -2.40847652      -0.24169473       3.10624482       0.00000000
