10
Lattice="16.2900001489832 0.0 0.0 0.0 16.2900001489832 0.0 0.0 0.0 29.20704162538098" Properties=species:S:1:pos:R:3:initial_magmoms:R:1 pbc="T T T"
Si       1.75787021       0.73490707      -1.49621833       0.00000000
Si      -0.65205613      -1.86619871      -1.46753701       0.00000000
Si      -1.83596447       1.68037868      -0.19116009       0.00000000
Si       0.54452583      -0.45541953       2.40949331       0.00000000
Si       0.47117196      -2.92112283       2.06216317       0.00000000
Si       0.47206791       2.06008229      -2.99173569       0.00000000
Si      -0.58196026      -3.64553913       0.12480169       0.00000000
Si      -2.36669267      -0.75336364      -2.74353425       0.00000000
Si      -0.83458558       3.34189353      -1.54919990       0.00000000
Si       0.94056832       2.00676512       3.08835258       0.00000000
