10
Lattice="16.2900001489832 0.0 0.0 0.0 16.2900001489832 0.0 0.0 0.0 29.20704162538098" Properties=species:S:1:pos:R:3:initial_magmoms:R:1 pbc="T T T"
Si      -1.19444797      -0.31874643       0.87480931       0.00000000
Si      -2.18123265      -2.06600045      -0.31990473       0.00000000
Si      -2.36007567       1.69129298       0.88184821       0.00000000
Si      -0.55003186       3.10427130       0.19977616       0.00000000
Si      -0.36839835      -0.95128714       3.01425432       0.00000000
Si       2.94423834      -1.52756218      -0.21709594       0.00000000
Si       1.61254711       2.76506463       1.09999560       0.00000000
Si      -0.50332842       2.68613957      -2.17420139       0.00000000
Si       2.47422296      -0.73422289      -2.43978102       0.00000000
Si       1.47862702       1.48253662      -2.95960794       0.00000000
