10
Lattice="16.2900001489832 0.0 0.0 0.0 16.2900001489832 0.0 0.0 0.0 29.20704162538098" Properties=species:S:1:pos:R:3:initial_magmoms:R:1 pbc="T T T"
Si       1.78349438      -1.45541377      -0.51503697       0.00000000
Si      -1.85572424      -1.42996879       0.28552804       0.00000000
Si       0.73806733       1.11993751       1.96881747       0.00000000
Si      -0.10129122       1.60689448      -1.76314148       0.00000000
Si       2.13109040       2.70744689       0.79930911       0.00000000
Si       1.56919942       0.89920801      -3.27212329       0.00000000
Si       3.26362334      -1.29355633       1.34942374       0.00000000
Si       0.81924040      -3.40897575      -1.41516879       0.00000000
Si       0.71910577       3.61954029      -0.91035428       0.00000000
H       -0.34116147      -1.26343612      -3.59626304       0.00000000
