10
Lattice="16.2900001489832 0.0 0.0 0.0 16.2900001489832 0.0 0.0 0.0 29.20704162538098" Properties=species:S:1:pos:R:3:initial_magmoms:R:1 pbc="T T T"
Si       1.77109769      -1.05194305      -1.14909264       0.00000000
Si      -0.22701744       1.92868715      -1.37185475       0.00000000
Si      -2.14848812      -1.04005135       0.07882981       0.00000000
Si       0.42122682       1.44099712       1.87561780       0.00000000
H        0.17591571      -1.87843250       2.48157629       0.00000000
Si      -2.31013379       2.27041877      -0.30127063       0.00000000
Si       1.97840423       2.71492400      -1.02294743       0.00000000
Si      -1.74923651       2.34116624       2.04326622       0.00000000
Si       3.27189540       0.77313970      -1.31563119       0.00000000
Si      -3.41016492       0.40892787      -1.33464497       0.00000000
