10
Lattice="16.2900001489832 0.0 0.0 0.0 16.2900001489832 0.0 0.0 0.0 29.20704162538098" Properties=species:S:1:pos:R:3:initial_magmoms:R:1 pbc="T T T"
Si       2.19659249      -0.68453839       0.14577234       0.00000000
Si      -0.44621568       2.08184573      -0.97753048       0.00000000
Si      -0.56633815       0.35442153       2.24908824       0.00000000
Si      -0.98038108      -1.88266790      -1.01993910       0.00000000
H       -0.32746158      -2.96264278      -0.17401555       0.00000000
H        2.89310403      -0.04176756      -1.01421452       0.00000000
Si      -2.68589522       2.16254639      -0.20602647       0.00000000
Si       1.32229189       1.50167737       3.12491980       0.00000000
Si      -2.24546249       2.04908654       2.14347558       0.00000000
Si      -3.23628546      -1.93981322      -0.09804804       0.00000000
