10
Lattice="16.2900001489832 0.0 0.0 0.0 16.2900001489832 0.0 0.0 0.0 29.20704162538098" Properties=species:S:1:pos:R:3:initial_magmoms:R:1 pbc="T T T"
Si      -1.31549896      -1.93196144       0.16753159       0.00000000
Si      -1.73742626       1.56647899       0.18400436       0.00000000
Si       0.42731928       0.33951618      -2.36270363       0.00000000
Si       1.97268644      -0.67328200       1.27129490       0.00000000
H        2.53187327       1.98285140      -0.13370984       0.00000000
Si       3.17531851       0.61522444      -0.24250607       0.00000000
Si      -2.29249172      -1.56898765      -1.93683576       0.00000000
Si      -2.90900307       0.72801640      -1.70761890       0.00000000
Si       0.39366414      -3.47703374      -0.53297010       0.00000000
Si      -2.36595962      -1.37811772       2.37482455       0.00000000
