10
Lattice="16.2900001489832 0.0 0.0 0.0 16.2900001489832 0.0 0.0 0.0 29.20704162538098" Properties=species:S:1:pos:R:3:initial_magmoms:R:1 pbc="T T T"
Si       1.12301632      -1.01788066       0.05780074       0.00000000
H       -0.47459286      -0.12351078      -2.09291819       0.00000000
Si       0.08363286      -2.14446449       1.79783945       0.00000000
Si       2.73541683       0.65630782       0.48217905       0.00000000
Si      -0.85548565       2.53078184       1.14698973       0.00000000
Si      -1.49016034       0.99872362      -2.29175973       0.00000000
Si      -2.50693328       1.54408024      -0.26315545       0.00000000
Si       1.42267087       2.73362492       0.39575541       0.00000000
Si      -1.79173712      -0.92388736       2.53934782       0.00000000
Si       1.51539355      -1.99116093      -2.09499189       0.00000000
