10
Lattice="16.2900001489832 0.0 0.0 0.0 16.2900001489832 0.0 0.0 0.0 29.20704162538098" Properties=species:S:1:pos:R:3:initial_magmoms:R:1 pbc="T T T"
H        0.25177824      -0.04574232      -1.47291111       0.00000000
Si       1.99407521      -0.12228903       1.25914477       0.00000000
Si      -0.94928347      -2.19186839      -0.13403111       0.00000000
Si      -1.36617715       1.97755715       0.09416350       0.00000000
H        1.31836600       1.88304257      -1.67563719       0.00000000
H       -1.27679392      -1.94080935       2.38475495       0.00000000
H        1.61676622      -0.08376318      -3.10108685       0.00000000
H        1.34763913      -3.16307820       1.13267828       0.00000000
Si      -3.22740741      -1.69132556      -0.22945052       0.00000000
Si      -0.09168012      -2.92646595      -2.25533855       0.00000000
