10
Lattice="16.2900001489832 0.0 0.0 0.0 16.2900001489832 0.0 0.0 0.0 29.20704162538098" Properties=species:S:1:pos:R:3:initial_magmoms:R:1 pbc="T T T"
Si       0.07187148       1.94419523       1.27030186       0.00000000
Si       0.65459737      -1.97550461       1.14272550       0.00000000
Si      -2.37485396      -0.11494224      -0.07661007       0.00000000
Si       1.75171259       0.35587134      -1.63793089       0.00000000
Si       1.67835872      -2.10983195      -1.98526103       0.00000000
Si      -2.68172498      -1.58700439       1.79781024       0.00000000
Si       0.02746494       3.59596866      -0.43197215       0.00000000
Si       2.14775507       2.81805600      -0.95907163       0.00000000
Si       3.65825185      -0.27272718      -0.16747318       0.00000000
Si      -0.43583895      -3.69162354      -0.11253473       0.00000000
