10
Lattice="16.2900001489832 0.0 0.0 0.0 16.2900001489832 0.0 0.0 0.0 29.20704162538098" Properties=species:S:1:pos:R:3:initial_magmoms:R:1 pbc="T T T"
Si       1.34961022       1.37389861       1.29651226       0.00000000
Si       1.28023111      -1.38885283      -1.39352053       0.00000000
Si      -1.33912924       1.31496139      -1.41421080       0.00000000
Si      -1.45408777      -1.39411450       1.25018989       0.00000000
Si      -2.24428961      -0.53326944      -2.47911268       0.00000000
Si      -0.54716482      -2.22987296      -2.65530036       0.00000000
Si      -0.13240512       2.59892291       2.66229194       0.00000000
Si       2.68789889      -0.00148239       2.65411397       0.00000000
Si       2.66030363       2.70614369      -0.18480464       0.00000000
Si      -0.12209355      -2.76338676       2.64751318       0.00000000
