10
Lattice="16.28999089631971 0.0 0.0 0.0 16.28999089631971 0.0 0.0 0.0 34.49183129400761" Properties=species:S:1:pos:R:3:initial_magmoms:R:1 pbc="T T T"
Si      -0.76444083       1.08285169       1.92809445       0.00000000
Si      -0.38120229       1.67261485      -1.63263725       0.00000000
Si      -1.30067505      -1.85232028      -0.75619933       0.00000000
Si       2.35799379      -0.10014115       0.41504044       0.00000000
Si       0.51816861      -3.29497897      -0.90965358       0.00000000
Si      -1.84088403      -0.78041480       2.89355584       0.00000000
Si      -0.09847305       3.58730887      -0.18035789       0.00000000
Si       3.28223952      -0.09056914      -1.68316782       0.00000000
Si      -3.12305364      -2.10346321       0.75292261       0.00000000
Si       2.26639512      -2.23813264      -2.16436362       0.00000000
