10
Lattice="16.28999089631971 0.0 0.0 0.0 16.28999089631971 0.0 0.0 0.0 34.49183129400761" Properties=species:S:1:pos:R:3:initial_magmoms:R:1 pbc="T T T"
Si       0.74631006       1.69727139      -1.57993371       0.00000000
Si      -1.78360839      -0.82150470      -1.54257903       0.00000000
Si       1.89806193      -1.65117069      -0.18715278       0.00000000
Si      -0.16500141      -1.08686880       2.65366502       0.00000000
Si      -1.08509319       2.94039387       1.67744217       0.00000000
Si      -0.51464997      -2.19678795      -3.01831286       0.00000000
Si       2.22055506       0.50243247      -3.00382628       0.00000000
Si       2.44934811       2.85925338      -0.46156994       0.00000000
Si       0.81324567      -3.45877425      -1.54061300       0.00000000
Si      -2.99029340      -2.49339627      -0.20194979       0.00000000
