10
Lattice="16.28999089631971 0.0 0.0 0.0 16.28999089631971 0.0 0.0 0.0 34.49183129400761" Properties=species:S:1:pos:R:3:initial_magmoms:R:1 pbc="T T T"
Si      -2.15837613      -0.14072931      -0.79755506       0.00000000
Si       1.50452811       0.05217687      -1.86887194       0.00000000
Si       1.01361267       1.59247782       1.59883524       0.00000000
Si      -1.01071305      -1.35169533       2.22720777       0.00000000
Si       2.37705309      -0.17791938       2.23896950       0.00000000
Si      -2.53607607       2.04253794      -1.50212009       0.00000000
Si       0.98202636       2.03923107      -2.93015169       0.00000000
Si       0.88998786       3.49651818      -1.04555147       0.00000000
Si       0.29809071      -3.82817932      -0.20215674       0.00000000
Si      -3.29681907       0.70775163       1.85462681       0.00000000
