10
Lattice="16.28999089631971 0.0 0.0 0.0 16.28999089631971 0.0 0.0 0.0 34.49183129400761" Properties=species:S:1:pos:R:3:initial_magmoms:R:1 pbc="T T T"
Si      -1.35762489       1.35738054       1.35739229       0.00000000
Si       1.35788553      -1.35728280       1.35742678       0.00000000
Si      -1.35778779      -1.35788553      -1.35708186       0.00000000
Si       1.35738054       1.35786924      -1.35756475       0.00000000
Si       0.00252495      -2.71342530       2.71533644       0.00000000
Si      -0.00061902       2.71379997       2.71509500       0.00000000
Si      -2.71461121       2.71479366       0.00000000       0.00000000
Si      -2.71473339      -2.71482624       0.00024144       0.00000000
Si       2.71482624      -2.71477737       0.00020695       0.00000000
Si      -2.71505430      -0.00048870       2.71523297       0.00000000
