10
Lattice="16.28999089631971 0.0 0.0 0.0 16.28999089631971 0.0 0.0 0.0 34.49183129400761" Properties=species:S:1:pos:R:3:initial_magmoms:R:1 pbc="T T T"
Si      -1.22279256       1.50345297       1.33673167       0.00000000
Si       1.35213516       1.36288656      -1.36673958       0.00000000
Si      -1.36749663      -1.34982198      -1.36642915       0.00000000
Si       1.25437887      -1.51935201       1.43672354       0.00000000
Si      -2.32968177      -0.02427210       2.66418503       0.00000000
Si      -2.70827603      -2.70681156       0.00738126       0.00000000
Si      -0.00623907      -2.70518256      -2.72502865       0.00000000
Si       2.70888039       0.00881289      -2.72706367       0.00000000
Si       2.70036072       2.73655710       0.00917483       0.00000000
Si       2.72862387      -2.71419093       0.01283097       0.00000000
