10
Lattice="16.28999089631971 0.0 0.0 0.0 16.28999089631971 0.0 0.0 0.0 34.49183129400761" Properties=species:S:1:pos:R:3:initial_magmoms:R:1 pbc="T T T"
Si      -1.48605525      -1.96783200       0.01393471       0.00000000
Si      -0.98642466       1.31870808      -1.86211154       0.00000000
Si       0.05637969       1.54401507       2.00690833       0.00000000
Si       2.24845983      -1.32367653       0.18853246       0.00000000
Si       2.04838605      -2.04897249      -2.12507741       0.00000000
Si      -1.15085592      -2.46716937       2.37607460       0.00000000
Si      -2.52708399       2.70436806      -0.44963576       0.00000000
Si      -3.66147561      -1.02618855       0.12455007       0.00000000
Si      -2.18510802       1.17426465       2.90014378       0.00000000
Si       1.22969952      -2.68532505       2.50045222       0.00000000
