10
Lattice="16.28999089631971 0.0 0.0 0.0 16.28999089631971 0.0 0.0 0.0 34.49183129400761" Properties=species:S:1:pos:R:3:initial_magmoms:R:1 pbc="T T T"
Si      -0.38599155      -2.31883426       0.00475988       0.00000000
Si       2.18901762       0.45361134      -0.74467905       0.00000000
Si      -1.29303667       0.95527818      -1.73800986       0.00000000
Si      -0.48933531       1.02628629       2.07813400       0.00000000
Si       0.74808567       2.96640900       1.80637271       0.00000000
Si       2.43936234      -0.85037058      -2.71637120       0.00000000
Si      -0.68502708       3.30225993      -1.70155197       0.00000000
Si      -2.56235347      -2.67557548       0.82594185       0.00000000
Si       3.67132617      -0.69778215       0.71349842       0.00000000
Si      -3.59304362       0.63244296      -1.09318471       0.00000000
