10
Lattice="16.28999089631971 0.0 0.0 0.0 16.28999089631971 0.0 0.0 0.0 34.49183129400761" Properties=species:S:1:pos:R:3:initial_magmoms:R:1 pbc="T T T"
Si       1.21816620      -1.38064266       1.54411392       0.00000000
Si       1.77779286       1.11905784      -1.22788371       0.00000000
Si      -1.44891405      -1.24235685      -1.62667848       0.00000000
Si      -1.48309047       1.33063236       1.52638511       0.00000000
Si       2.49153921      -2.69553888       0.02877655       0.00000000
Si      -2.65114863       2.76193692      -0.03788930       0.00000000
Si      -2.80443753      -2.60643258       0.10773874       0.00000000
Si       2.67889050       2.76029163       0.22692188       0.00000000
Si       2.58181839      -0.02534724       2.92198402       0.00000000
Si       0.90745074       2.63337624      -2.75159570       0.00000000
