10
Lattice="16.28999089631971 0.0 0.0 0.0 16.28999089631971 0.0 0.0 0.0 34.49183129400761" Properties=species:S:1:pos:R:3:initial_magmoms:R:1 pbc="T T T"
Si       1.35985662      -1.35487188       1.36097944       0.00000000
Si      -1.35651717       1.36081495       1.36077249       0.00000000
Si       1.35576783       1.36785078      -1.36512881       0.00000000
Si      -1.34842104      -1.35573525      -1.39408127       0.00000000
Si      -2.71221984       2.71437405       0.00241443       0.00000000
Si       2.71648782      -2.71171485       0.00151764       0.00000000
Si       0.00188964      -2.71239903       2.71819927       0.00000000
Si      -2.71679733      -2.71404432       0.00048289       0.00000000
Si      -2.71340901       0.00232947       2.71809579       0.00000000
Si       2.71762812       2.71609264       0.00903686       0.00000000
