10
Lattice="16.28999089631971 0.0 0.0 0.0 16.28999089631971 0.0 0.0 0.0 34.49183129400761" Properties=species:S:1:pos:R:3:initial_magmoms:R:1 pbc="T T T"
Si       1.72911834       0.00485442      -1.59993898       0.00000000
Si      -0.41694255      -1.52570511       1.80002621       0.00000000
Si      -1.92888261       0.03769506      -1.44731254       0.00000000
Si       0.37471887       2.33157141       0.58418847       0.00000000
Si      -1.31299029       2.11188447      -2.49534742       0.00000000
Si       0.64063683       1.19224881      -3.37913211       0.00000000
Si       3.46872744       1.12215294      -0.51110024       0.00000000
Si      -1.95341535      -0.29357838       3.15672866       0.00000000
Si      -1.35034326       3.45214422      -0.53717608       0.00000000
Si      -1.02030786      -3.60800694       0.71987941       0.00000000
