10
Lattice="16.28999089631971 0.0 0.0 0.0 16.28999089631971 0.0 0.0 0.0 34.49183129400761" Properties=species:S:1:pos:R:3:initial_magmoms:R:1 pbc="T T T"
Si       1.29303667      -0.95527818       1.73800986       0.00000000
Si      -2.30000695      -0.32283522       0.64482515       0.00000000
Si       0.60800959       2.34698175       0.03645789       0.00000000
Si       0.55438291      -1.03861782      -2.19878649       0.00000000
Si       3.48205429      -0.50166684       0.99333080       0.00000000
Si       1.27396108       2.74607046      -2.20475358       0.00000000
Si       0.90704512      -3.27411244       1.74276973       0.00000000
Si      -3.69866635       0.29688525      -1.17562023       0.00000000
Si       0.80370136       0.07100811       3.81614386       0.00000000
Si      -2.83653439       0.85068009       2.63079692       0.00000000
