10
Lattice="16.28999089631971 0.0 0.0 0.0 16.28999089631971 0.0 0.0 0.0 34.49183129400761" Properties=species:S:1:pos:R:3:initial_magmoms:R:1 pbc="T T T"
Si      -1.35488817       1.35589152      -1.35180461       0.00000000
Si      -1.35542574      -1.35837665       1.35780619       0.00000000
Si       1.35866745       1.35707091       1.35742678       0.00000000
Si       1.36140417      -1.36236770      -1.35797865       0.00000000
Si      -0.01557324       2.70243432      -2.69923220       0.00000000
Si      -2.71306692       2.71287621      -0.00013797       0.00000000
Si      -2.71265967      -2.71507301       0.00013797       0.00000000
Si      -2.71342530      -0.00059937       2.71471559       0.00000000
Si       0.00182448       2.71468440       2.71468110       0.00000000
Si       0.00180819      -2.71538252       2.71475008       0.00000000
