10
Lattice="16.28999089631971 0.0 0.0 0.0 16.28999089631971 0.0 0.0 0.0 34.49183129400761" Properties=species:S:1:pos:R:3:initial_magmoms:R:1 pbc="T T T"
Si      -1.51669674       0.58622171       1.68189162       0.00000000
Si       1.24919865       1.48472924      -1.31548469       0.00000000
Si      -1.42376229      -1.32999395      -1.32300391       0.00000000
Si       0.47617299       0.62914586       3.04321598       0.00000000
Si       2.32922565      -0.88534195       2.54656782       0.00000000
Si       2.44639962      -0.00633844      -2.73216847       0.00000000
Si      -2.35952505      -2.82771335       0.32239533       0.00000000
Si      -0.26137305       2.69344724      -2.72844335       0.00000000
Si      -0.26580393      -2.72927288      -2.75979644       0.00000000
Si       2.36273418       3.10949384       0.03404346       0.00000000
