10
Lattice="16.28999089631971 0.0 0.0 0.0 16.28999089631971 0.0 0.0 0.0 34.49183129400761" Properties=species:S:1:pos:R:3:initial_magmoms:R:1 pbc="T T T"
Si       1.51669674      -0.58622171      -1.68189162       0.00000000
Si       1.99286973       0.04292415       1.36132436       0.00000000
Si      -1.33095816       1.93813533       0.68552553       0.00000000
Si      -1.38144087      -1.95367708       0.60543545       0.00000000
Si       0.31654728      -1.23010351       2.45909649       0.00000000
Si       0.09293445      -1.91621567      -3.00489553       0.00000000
Si      -1.76606406       2.67032196      -1.58603876       0.00000000
Si      -3.66526629      -0.69000530       0.26741532       0.00000000
Si      -0.84282831      -3.41393507      -1.35949629       0.00000000
Si      -0.68364243       0.52093791       3.74643583       0.00000000
