10
Lattice="16.28999089631971 0.0 0.0 0.0 16.28999089631971 0.0 0.0 0.0 34.49183129400761" Properties=species:S:1:pos:R:3:initial_magmoms:R:1 pbc="T T T"
Si       1.67632245       1.27302766      -1.09777213       0.00000000
Si      -1.00018971       1.75104142       1.28733934       0.00000000
Si       1.09734327      -1.56479526       1.47235363       0.00000000
Si      -1.69798815      -0.72357357      -1.85366103       0.00000000
Si      -0.31654728       1.23010351      -2.45909649       0.00000000
Si       1.32670647      -0.07098368       3.31752966       0.00000000
Si      -3.24767214       1.31122771       1.60914830       0.00000000
Si       3.52937511      -0.24146015      -1.59442028       0.00000000
Si      -0.22243995       1.67100865       3.49512820       0.00000000
Si      -0.44344638      -3.10597587       2.35148191       0.00000000
