10
Lattice="16.28999089631971 0.0 0.0 0.0 16.28999089631971 0.0 0.0 0.0 34.49183129400761" Properties=species:S:1:pos:R:3:initial_magmoms:R:1 pbc="T T T"
Si       1.35448092       1.34156295       1.36791230       0.00000000
Si       1.35659862      -1.35599589      -1.35880645       0.00000000
Si      -1.35492075       1.35778779      -1.36139334       0.00000000
Si      -1.33517727      -1.36521603       1.37850130       0.00000000
Si      -2.71166598       2.71186146      -0.00106925       0.00000000
Si       2.71295289      -2.71409319       0.00051738       0.00000000
Si       0.00431685       2.70513369       2.72475272       0.00000000
Si      -2.71283886      -2.71850778      -0.00341469       0.00000000
Si      -2.71467963      -0.00006516      -2.71726799       0.00000000
Si      -0.00016290      -2.71515204      -2.71699205       0.00000000
