10
Lattice="16.28999089631971 0.0 0.0 0.0 16.28999089631971 0.0 0.0 0.0 34.49183129400761" Properties=species:S:1:pos:R:3:initial_magmoms:R:1 pbc="T T T"
Si       1.77906348      -1.74498480      -0.25603301       0.00000000
Si       0.51728895       1.91541078      -1.53178308       0.00000000
Si       0.58127607       0.09666486       2.50866128       0.00000000
Si      -2.02323429      -0.81106281      -1.48597791       0.00000000
Si       1.86305472       0.58880205      -3.03010907       0.00000000
Si       3.29621634      -0.63902412      -1.67437239       0.00000000
Si       0.66552795      -3.36974940      -1.60556115       0.00000000
Si      -0.84504375      -2.16103140      -3.01851981       0.00000000
Si       3.02197419       0.29380644       2.58899280       0.00000000
Si       1.30064247       3.92647644      -0.32153303       0.00000000
