10
Lattice="16.28999089631971 0.0 0.0 0.0 16.28999089631971 0.0 0.0 0.0 34.49183129400761" Properties=species:S:1:pos:R:3:initial_magmoms:R:1 pbc="T T T"
Si       2.44069812       0.19714158       0.08033152       0.00000000
Si      -0.55723203      -2.01489381       1.28585619       0.00000000
Si      -0.97490763       1.91987424       1.20452441       0.00000000
Si      -0.58127607      -0.09666486      -2.50866128       0.00000000
Si       1.18812744       1.22251563       2.05147180       0.00000000
Si       1.19778741      -1.84164966      -2.76469428       0.00000000
Si       3.01682655      -1.85974785      -1.09152910       0.00000000
Si      -2.90019015      -1.70543268       1.67706276       0.00000000
Si      -1.56094038       1.00494639       3.34388144       0.00000000
Si       1.04187582       3.58360452       1.50312036       0.00000000
