10
Lattice="16.28999089631971 0.0 0.0 0.0 16.28999089631971 0.0 0.0 0.0 34.49183129400761" Properties=species:S:1:pos:R:3:initial_magmoms:R:1 pbc="T T T"
Si       0.51769620      -0.56482317       2.27363381       0.00000000
Si      -2.33943948      -0.04505814      -0.61392045       0.00000000
Si       0.78639975       2.15993997       0.76627095       0.00000000
Si       1.56761928      -1.10700324      -1.49525621       0.00000000
Si       1.87802523       1.33703433       2.80784359       0.00000000
Si      -1.16897040       2.93933502       1.84721106       0.00000000
Si       1.68142122      -3.33734859      -0.53476165       0.00000000
Si      -1.46691450      -0.27515439       3.49392099       0.00000000
Si      -2.86194123       1.94199606      -1.67520020       0.00000000
Si      -2.83869540      -1.82707011      -2.08768824       0.00000000
