10
Lattice="16.28999089631971 0.0 0.0 0.0 16.28999089631971 0.0 0.0 0.0 34.49183129400761" Properties=species:S:1:pos:R:3:initial_magmoms:R:1 pbc="T T T"
Si       0.52250175      -1.98705420       1.06127975       0.00000000
Si      -2.28807711       0.04408074      -0.51448044       0.00000000
Si      -0.09203850       1.45728711       1.88460022       0.00000000
Si       1.37696112       0.45897075      -1.91885063       0.00000000
Si      -0.55126989       0.96663231      -3.23999198       0.00000000
Si      -0.11916135       3.52554696       0.80879940       0.00000000
Si      -2.38591485       1.85253138      -1.99856130       0.00000000
Si      -0.98202636      -2.03923107       2.93015169       0.00000000
Si       0.02324583      -3.76906617      -0.41248804       0.00000000
Si      -3.51810243       0.00330687       1.42803160       0.00000000
