10
Lattice="16.28999089631971 0.0 0.0 0.0 16.28999089631971 0.0 0.0 0.0 34.49183129400761" Properties=species:S:1:pos:R:3:initial_magmoms:R:1 pbc="T T T"
Si       1.20381471       0.01449810       2.04733277       0.00000000
Si       1.88017551       0.74073888      -1.26623033       0.00000000
Si      -1.70921196       1.67448168      -0.12810273       0.00000000
Si      -0.78335352      -2.01106566      -1.21025005       0.00000000
Si       0.57529764       2.05586316      -2.73058184       0.00000000
Si      -2.15492265      -0.66402927      -2.69995308       0.00000000
Si       2.60301168       2.62221759      -0.03338811       0.00000000
Si       2.69513163      -1.84029759       1.80927002       0.00000000
Si      -0.83911419       3.35368746      -1.45545262       0.00000000
Si      -3.50508672       0.69954147      -1.34311266       0.00000000
