10
Lattice="16.28999089631971 0.0 0.0 0.0 16.28999089631971 0.0 0.0 0.0 34.49183129400761" Properties=species:S:1:pos:R:3:initial_magmoms:R:1 pbc="T T T"
Si      -0.58603275      -0.91492785       2.13935703       0.00000000
Si       2.16303507      -0.69735861       0.84694739       0.00000000
Si       0.97490763      -1.91987424      -1.20452441       0.00000000
Si       2.01678345       1.66373028       0.29859595       0.00000000
Si      -2.79039555      -1.70157195       1.57141422       0.00000000
Si      -1.18996821       1.00041777       3.29424766       0.00000000
Si      -2.72143998       1.62124596      -1.86821659       0.00000000
Si       0.75896739       3.51880290       1.08397539       0.00000000
Si      -3.74020029       0.25959744       0.44370317       0.00000000
Si      -1.01519280       3.62333583      -0.50671978       0.00000000
