10
Lattice="16.28999089631971 0.0 0.0 0.0 16.28999089631971 0.0 0.0 0.0 34.49183129400761" Properties=species:S:1:pos:R:3:initial_magmoms:R:1 pbc="T T T"
Si       0.46996650       1.01745711      -2.05254104       0.00000000
Si      -1.83464496       0.88589907       1.24143069       0.00000000
Si       1.92823101      -0.50766156       1.32114135       0.00000000
Si      -0.78014439      -2.28628521      -0.30376973       0.00000000
Si      -1.73680722      -0.92255157       2.72551154       0.00000000
Si       0.55126989      -0.96663231       3.23999198       0.00000000
Si       1.07390196      -0.89788851      -3.20743168       0.00000000
Si      -3.72562074       0.83328237      -0.24823785       0.00000000
Si      -2.34155718      -2.72523555       1.41920168       0.00000000
Si       3.44774592      -1.94626404       0.11165012       0.00000000
