10
Lattice="16.28999089631971 0.0 0.0 0.0 16.28999089631971 0.0 0.0 0.0 34.49183129400761" Properties=species:S:1:pos:R:3:initial_magmoms:R:1 pbc="T T T"
Si      -1.34829072      -1.35622395      -1.36003436       0.00000000
Si       1.35568638      -1.35290079       1.35925485       0.00000000
Si      -1.36140417       1.36236770       1.35797865       0.00000000
Si       1.38150603       1.34472681      -1.36371464       0.00000000
Si      -0.01920591       2.67968775      -2.63670882       0.00000000
Si      -2.62036053       0.07609059      -2.69640732       0.00000000
Si       2.71396287      -2.71117728      -0.00155213       0.00000000
Si      -0.00244350      -2.71010214       2.71588831       0.00000000
Si      -2.71743264      -2.70954828      -0.00134518       0.00000000
Si       2.71282257       0.00399105       2.71523297       0.00000000
