10
Lattice="16.28999089631971 0.0 0.0 0.0 16.28999089631971 0.0 0.0 0.0 34.49183129400761" Properties=species:S:1:pos:R:3:initial_magmoms:R:1 pbc="T T T"
Si      -1.15795836       1.39927893       1.43679253       0.00000000
Si       1.31100291      -1.42607547       1.27288725       0.00000000
Si       1.35594702       1.35868374      -1.34242282       0.00000000
Si      -1.35977517      -1.35669636      -1.34131908       0.00000000
Si      -2.09372112      -0.09844047       3.08219177       0.00000000
Si       0.00017919      -2.71246419      -2.69912527       0.00000000
Si       2.71425609       0.00192222      -2.69981511       0.00000000
Si      -2.71650411       0.00244350      -2.69881485       0.00000000
Si      -0.00244350       2.71606984      -2.69940121       0.00000000
Si      -2.72272689      -2.69982315       0.03531965       0.00000000
