10
Lattice="16.28999089631971 0.0 0.0 0.0 16.28999089631971 0.0 0.0 0.0 34.49183129400761" Properties=species:S:1:pos:R:3:initial_magmoms:R:1 pbc="T T T"
Si       1.90936719       0.55651527       1.34497522       0.00000000
Si      -0.84344733      -2.24896482       0.01472802       0.00000000
Si      -1.89526005       1.44252837       0.54083222       0.00000000
Si       0.13936095       0.35471475      -2.90273067       0.00000000
Si       1.95278004       2.89978031       1.19110708       0.00000000
Si       1.48895487      -0.67841334       3.31390802       0.00000000
Si      -3.43604970      -0.09865224       1.41996050       0.00000000
Si      -2.61760752      -2.14443189      -1.57596714       0.00000000
Si       0.53677179       2.76586348      -2.52594169       0.00000000
Si       2.14058745      -1.57942953      -2.81556976       0.00000000
