10
Lattice="16.28999089631971 0.0 0.0 0.0 16.28999089631971 0.0 0.0 0.0 34.49183129400761" Properties=species:S:1:pos:R:3:initial_magmoms:R:1 pbc="T T T"
Si      -1.02754062       2.04561675       0.17325257       0.00000000
Si      -1.73960910      -1.11729852      -1.08883874       0.00000000
Si       0.09337428      -0.53787951       2.29729522       0.00000000
Si       2.09691396      -0.50966523      -0.97408435       0.00000000
Si      -3.09400857       1.20941847       1.09528871       0.00000000
Si      -0.62428167      -2.88078876      -2.08113479       0.00000000
Si       1.67563827      -2.81386944      -1.54785629       0.00000000
Si      -3.46872744      -1.12215294       0.51110024       0.00000000
Si       2.37224754      -0.76509243       2.82881463       0.00000000
Si      -1.05793776       3.10508807      -1.90198412       0.00000000
