10
Lattice="16.28999089631971 0.0 0.0 0.0 16.28999089631971 0.0 0.0 0.0 34.49183129400761" Properties=species:S:1:pos:R:3:initial_magmoms:R:1 pbc="T T T"
Si       1.02754062      -2.04561675      -0.17325257       0.00000000
Si      -0.03039714       1.05947132      -2.07523668       0.00000000
Si       1.36041048       1.48796348       1.18010418       0.00000000
Si      -2.06646795      -0.83619828       0.92203615       0.00000000
Si      -0.71206848      -3.16291527      -1.26209130       0.00000000
Si       1.12091490      -2.58349626       2.12404265       0.00000000
Si      -1.85111415      -0.34371900       3.20487928       0.00000000
Si      -1.57954356       2.80146365      -1.89763814       0.00000000
Si      -3.79153008       0.28437453      -0.19932840       0.00000000
Si       1.90345392       2.38087214      -2.30377968       0.00000000
