10
Lattice="16.28999089631971 0.0 0.0 0.0 16.28999089631971 0.0 0.0 0.0 34.49183129400761" Properties=species:S:1:pos:R:3:initial_magmoms:R:1 pbc="T T T"
Si       1.33656192      -1.34692822       1.39078040       0.00000000
Si       1.35907470       1.35079449      -1.36687755       0.00000000
Si      -1.35625653      -1.36425070      -1.37005080       0.00000000
Si      -1.19720097       1.49106768       1.41668378       0.00000000
Si      -2.44639962       0.00633844       2.73216847       0.00000000
Si       2.39941926       0.25183851       2.85509742       0.00000000
Si      -2.70777267       2.69978568       0.00372512       0.00000000
Si       2.71867068       2.71531005       0.00217299       0.00000000
Si       0.00177561       2.70846825      -2.72651180       0.00000000
Si      -2.71220355      -2.72293444      -0.02762797       0.00000000
