10
Lattice="16.28999089631971 0.0 0.0 0.0 16.28999089631971 0.0 0.0 0.0 34.49183129400761" Properties=species:S:1:pos:R:3:initial_magmoms:R:1 pbc="T T T"
Si       1.35765747       1.35681039      -1.35690940       0.00000000
Si       1.35703845      -1.35785295       1.35735780       0.00000000
Si      -1.35798327      -1.35777150      -1.35690940       0.00000000
Si      -1.35777150       1.35744570       1.35756475       0.00000000
Si       2.71521720      -0.00087966      -2.71243913       0.00000000
Si       2.71441899      -2.71469592      -0.00034492       0.00000000
Si       2.71495656       0.00060273       2.71433618       0.00000000
Si       2.71464705       2.71480995      -0.00010348       0.00000000
Si      -2.71503801       2.71515204      -0.00003449       0.00000000
Si       0.00030951       2.71674846       2.71395677       0.00000000
