10
Lattice="16.28999089631971 0.0 0.0 0.0 16.28999089631971 0.0 0.0 0.0 34.49183129400761" Properties=species:S:1:pos:R:3:initial_magmoms:R:1 pbc="T T T"
Si       0.36875673      -1.40758632      -1.84234771       0.00000000
Si      -0.76602096       2.13578190      -0.62461292       0.00000000
Si      -0.81832815      -0.05861142       2.22465538       0.00000000
Si       2.28987294      -0.08386092       0.80921331       0.00000000
Si      -2.26380501      -0.11546352      -1.79809466       0.00000000
Si       1.29155265      -0.72285246       2.92908244       0.00000000
Si       1.29617901       2.59227657      -1.56334313       0.00000000
Si       2.90541828       2.09512206       0.13765698       0.00000000
Si      -0.20577528      -3.51924273      -1.09542668       0.00000000
Si      -1.05445170       2.11569633       3.01286315       0.00000000
