10
Lattice="16.28999089631971 0.0 0.0 0.0 16.28999089631971 0.0 0.0 0.0 34.49183129400761" Properties=species:S:1:pos:R:3:initial_magmoms:R:1 pbc="T T T"
Si       2.32116929       0.29330145      -0.34067601       0.00000000
Si      -0.57893031      -0.11204262      -2.30150322       0.00000000
Si      -0.66098304       1.87535367       1.33383435       0.00000000
Si      -0.71535906      -2.07847368       1.01799248       0.00000000
Si       0.08952074      -3.31714899      -0.84605060       0.00000000
Si       3.05643473       0.00527796       1.89950070       0.00000000
Si      -1.21412628      -2.35463805      -2.51959519       0.00000000
Si       2.58047351       2.31943536      -1.59366146       0.00000000
Si      -3.01547448       1.94476536       1.43934492       0.00000000
Si       0.07870450       3.94639911       0.47981613       0.00000000
