10
Lattice="16.28999089631971 0.0 0.0 0.0 16.28999089631971 0.0 0.0 0.0 34.49183129400761" Properties=species:S:1:pos:R:3:initial_magmoms:R:1 pbc="T T T"
Si      -1.35469269       1.35606105      -1.35763373       0.00000000
Si       1.36031993      -1.36062225      -1.35746127       0.00000000
Si       1.35244697       1.35550719       1.37125801       0.00000000
Si      -1.35128808      -1.35505107       1.37908766       0.00000000
Si       0.12773284      -2.63751390       2.76731566       0.00000000
Si      -2.71326240       2.71257822      -0.00017246       0.00000000
Si      -2.71210581      -0.00228060      -2.71516399       0.00000000
Si       0.00323412       2.71283886      -2.71512949       0.00000000
Si       2.71460537       2.71393029       0.00306977       0.00000000
Si      -2.71505430      -2.71686249       0.00013797       0.00000000
