10
Lattice="16.28999089631971 0.0 0.0 0.0 16.28999089631971 0.0 0.0 0.0 34.49183129400761" Properties=species:S:1:pos:R:3:initial_magmoms:R:1 pbc="T T T"
Si      -2.35449144       0.06941169       0.10551057       0.00000000
Si       0.73968754       2.07104544      -0.85401822       0.00000000
Si       0.66098304      -1.87535367      -1.33383435       0.00000000
Si       0.66717324      -0.25241355       2.32268122       0.00000000
Si      -0.25997211       1.98555552      -2.99589316       0.00000000
Si       3.07404422       1.72408473      -1.00240216       0.00000000
Si      -2.85640263       2.35869426       0.51779166       0.00000000
Si       2.98215233      -1.58205222      -1.67451036       0.00000000
Si       3.00836294      -0.54358101       2.32544057       0.00000000
Si      -3.09666384      -1.44837648       1.81878977       0.00000000
