10
Lattice="16.28999089631971 0.0 0.0 0.0 16.28999089631971 0.0 0.0 0.0 34.49183129400761" Properties=species:S:1:pos:R:3:initial_magmoms:R:1 pbc="T T T"
Si       1.35524655      -1.35734796       1.35811662       0.00000000
Si       1.35679410       1.35759269      -1.35701288       0.00000000
Si      -1.35830907       1.35676152       1.35739229       0.00000000
Si      -1.35830907      -1.35731538      -1.35697839       0.00000000
Si      -2.71425609      -0.00192222       2.69981511       0.00000000
Si       0.01115865      -2.72582199       2.69757314       0.00000000
Si       2.71381626      -2.71386513       0.00065535       0.00000000
Si      -0.00115659      -2.71440270      -2.71381880       0.00000000
Si      -2.71407690      -2.71438641       0.00068984       0.00000000
Si       2.71410948      -0.00030951      -2.71447415       0.00000000
