10
Lattice="16.28999089631971 0.0 0.0 0.0 16.28999089631971 0.0 0.0 0.0 34.49183129400761" Properties=species:S:1:pos:R:3:initial_magmoms:R:1 pbc="T T T"
Si       1.21766351       1.58544054       1.30027378       0.00000000
Si      -1.27980756       1.39108455      -1.46376515       0.00000000
Si      -1.96037118      -0.76997943       1.20490382       0.00000000
Si       1.42171205      -1.32493086      -1.46031597       0.00000000
Si       2.53535021       0.34715619       2.76662583       0.00000000
Si      -2.68320735      -2.65145814      -0.02793840       0.00000000
Si      -2.66473449       2.76357213      -0.07163957       0.00000000
Si      -2.64399732       0.03214017      -2.83174644       0.00000000
Si       2.93061077      -2.54536137      -0.12717145       0.00000000
Si       0.06926508      -2.68043805      -2.83157398       0.00000000
