10
Lattice="16.28999089631971 0.0 0.0 0.0 16.28999089631971 0.0 0.0 0.0 34.49183129400761" Properties=species:S:1:pos:R:3:initial_magmoms:R:1 pbc="T T T"
Si      -1.95695028       1.28398336       0.12396371       0.00000000
Si       2.09664422       0.88432776       0.59515688       0.00000000
Si      -0.31509747      -1.73672577       1.62228970       0.00000000
Si       0.30931452       0.89244669      -2.35296506       0.00000000
Si       0.96510498       3.14021420      -1.32952287       0.00000000
Si      -0.48035952      -3.55262094       0.18453140       0.00000000
Si      -2.44283211       1.01782919       2.43678026       0.00000000
Si       3.50615276      -0.06193458      -1.09535770       0.00000000
Si      -1.23046515       3.47705882      -0.33105278       0.00000000
Si      -2.48624496      -1.32543585       2.59064840       0.00000000
