10
Lattice="16.28999089631971 0.0 0.0 0.0 16.28999089631971 0.0 0.0 0.0 34.49183129400761" Properties=species:S:1:pos:R:3:initial_magmoms:R:1 pbc="T T T"
Si       2.26340753       0.34306740      -0.56773586       0.00000000
Si      -0.95157776       0.47925180      -2.11762717       0.00000000
Si      -0.22522295      -2.18150793       0.94300719       0.00000000
Si      -0.54361100       1.85942205       1.61956484       0.00000000
Si       1.12186624      -1.02381021       2.78411319       0.00000000
Si       3.07660433      -0.30068082       1.54185470       0.00000000
Si      -2.53090955      -2.69324199       1.00957647       0.00000000
Si       2.94095750      -1.12896216      -2.27728994       0.00000000
Si      -3.21264605      -0.28224054      -2.24452268       0.00000000
Si       2.82021602       2.56300344      -1.23611894       0.00000000
