10
Lattice="16.28999089631971 0.0 0.0 0.0 16.28999089631971 0.0 0.0 0.0 34.49183129400761" Properties=species:S:1:pos:R:3:initial_magmoms:R:1 pbc="T T T"
Si      -1.35709828      -1.35646830      -1.35818560       0.00000000
Si       1.35632169      -1.35757602       1.35870298       0.00000000
Si       1.35742941       1.35786924      -1.35784068       0.00000000
Si      -1.36031993       1.36062225       1.35746127       0.00000000
Si      -2.71442618      -2.71363707      -0.00082780       0.00000000
Si       2.71443528       2.71428867      -0.00013797       0.00000000
Si       0.00032091      -2.71433754      -2.71499153       0.00000000
Si      -2.71473569       0.00057015      -2.71526746       0.00000000
Si       2.71505430       0.00048870      -2.71523297       0.00000000
Si       0.00044309       2.71528236      -2.71523297       0.00000000
