10
Lattice="16.28999089631971 0.0 0.0 0.0 16.28999089631971 0.0 0.0 0.0 34.49183129400761" Properties=species:S:1:pos:R:3:initial_magmoms:R:1 pbc="T T T"
Si      -0.00665609       0.90165150       2.15084282       0.00000000
Si      -0.61554534      -2.17898298       0.67155633       0.00000000
Si       2.13883628       0.56342223      -0.84132522       0.00000000
Si      -1.60923927       0.49715451      -1.70100010       0.00000000
Si      -2.90541828      -2.09512206      -0.13765698       0.00000000
Si       1.80272470       2.60596017      -1.93930430       0.00000000
Si       0.64242058       3.16860048       1.86832007       0.00000000
Si      -3.67143924       0.04065984      -0.76226990       0.00000000
Si       1.19548237      -3.56426829      -0.02100554       0.00000000
Si      -1.15649130      -0.92647746      -3.53296576       0.00000000
