10
Lattice="16.28999089631971 0.0 0.0 0.0 16.28999089631971 0.0 0.0 0.0 34.49183129400761" Properties=species:S:1:pos:R:3:initial_magmoms:R:1 pbc="T T T"
Si      -1.35415349       1.35855342      -1.36197970       0.00000000
Si       1.36014984      -1.36026387      -1.36066901       0.00000000
Si      -1.36215840      -1.35842310       1.36818824       0.00000000
Si       1.37919285       1.35931905       1.37301710       0.00000000
Si       0.14674032      -2.57885361       2.70133275       0.00000000
Si      -2.71133108       2.71381626      -0.00627752       0.00000000
Si      -2.71460537      -2.71393029      -0.00306977       0.00000000
Si      -2.71137124      -0.00109143      -2.71819927       0.00000000
Si       2.71599912       2.71427195      -0.00106925       0.00000000
Si       0.00311139       2.71391531      -2.71802681       0.00000000
