10
Lattice="16.28999089631971 0.0 0.0 0.0 16.28999089631971 0.0 0.0 0.0 34.49183129400761" Properties=species:S:1:pos:R:3:initial_magmoms:R:1 pbc="T T T"
Si      -1.35675961      -1.35671861      -1.35690940       0.00000000
Si       1.35665889      -1.35731800       1.35780619       0.00000000
Si      -1.35776688       1.35709058       1.35770271       0.00000000
Si       1.35898836       1.35779105      -1.35656448       0.00000000
Si      -0.00060599      -2.71267989       2.71385329       0.00000000
Si      -2.71346995      -0.00001955       2.71450864       0.00000000
Si       2.71438152      -2.71504194       0.00000000       0.00000000
Si       2.71434894       2.71517159       0.00051738       0.00000000
Si       0.00022154       2.71546481       2.71447415       0.00000000
Si       2.71503312       0.00101324       2.71502602       0.00000000
