10
Lattice="16.28999089631971 0.0 0.0 0.0 16.28999089631971 0.0 0.0 0.0 34.49183129400761" Properties=species:S:1:pos:R:3:initial_magmoms:R:1 pbc="T T T"
Si       0.33611157      -2.04253794       1.09797908       0.00000000
Si      -1.23699255       1.35602847       1.56955166       0.00000000
Si      -1.48227108      -0.01829367      -1.90736484       0.00000000
Si       2.24148771       0.36975042      -0.89323545       0.00000000
Si      -0.34197597       1.53010341      -3.34977954       0.00000000
Si      -3.61731572      -0.02208924      -0.83528915       0.00000000
Si      -1.80272470      -2.60596017       1.93930430       0.00000000
Si      -0.16615800       3.44618208       1.51846923       0.00000000
Si       2.20284783      -1.71419670       2.57074661       0.00000000
Si       2.37459330       2.69695611      -1.26612685       0.00000000
