10
Lattice="16.28999089631971 0.0 0.0 0.0 16.28999089631971 0.0 0.0 0.0 34.49183129400761" Properties=species:S:1:pos:R:3:initial_magmoms:R:1 pbc="T T T"
Si       0.00590350      -2.18215953      -0.86822886       0.00000000
Si      -2.13504463      -0.00379557       1.07207570       0.00000000
Si       1.14029511       1.54839708      -1.44241470       0.00000000
Si       1.48227108       0.01829367       1.90736484       0.00000000
Si      -1.92969289      -2.09051199       2.14566904       0.00000000
Si      -1.96978258       1.81209960       2.50983400       0.00000000
Si       0.24527853       1.37432214       3.47691650       0.00000000
Si      -1.47694492      -3.51414396       0.31370338       0.00000000
Si       3.72375879       0.38804409       1.01412939       0.00000000
Si       2.68095444       0.16273710      -2.85489047       0.00000000
