10
Lattice="16.28999089631971 0.0 0.0 0.0 16.28999089631971 0.0 0.0 0.0 34.49183129400761" Properties=species:S:1:pos:R:3:initial_magmoms:R:1 pbc="T T T"
Si       2.00539674      -0.77164101       0.84905139       0.00000000
Si       1.41380910       1.72740530      -0.78217170       0.00000000
Si      -1.40950854       0.94626234       1.69051458       0.00000000
Si      -0.71117253      -1.93849371      -1.23460130       0.00000000
Si      -2.02885923      -0.70020936      -2.70095334       0.00000000
Si       1.73397276       0.12103470       3.02031339       0.00000000
Si      -3.19683824       0.95438127      -1.25760736       0.00000000
Si      -0.53535456      -0.02241504       3.63364747       0.00000000
Si      -3.50615276       0.06193458       1.09535770       0.00000000
Si       0.34769376       2.31872579      -2.83088414       0.00000000
