10
Lattice="16.28999089631971 0.0 0.0 0.0 16.28999089631971 0.0 0.0 0.0 34.5300574570662" Properties=species:S:1:pos:R:3:initial_magmoms:R:1 pbc="T T T"
Si      -1.85557109      -1.15782315       1.01257896       0.00000000
Si       1.06355781       1.82493612       1.17879294       0.00000000
Si       0.47333853       1.74004893      -1.62176345       0.00000000
Si       1.38101733      -2.03460471      -0.26994548       0.00000000
Si       2.18764926       0.25506882       2.50750684       0.00000000
Si       2.34836640       0.49723596      -2.36857995       0.00000000
Si      -0.54073026      -2.45649032       2.50327691       0.00000000
Si       3.34660131      -1.18455341       1.00600789       0.00000000
Si       0.66870450      -2.82839102      -2.53888229       0.00000000
Si      -0.54284796       2.97891972       2.48410235       0.00000000
