10
Lattice="16.28999089631971 0.0 0.0 0.0 16.28999089631971 0.0 0.0 0.0 34.5300574570662" Properties=species:S:1:pos:R:3:initial_magmoms:R:1 pbc="T T T"
Si       2.18649267       0.64306404       0.38487224       0.00000000
Si      -0.71463741      -0.32892768       2.26068413       0.00000000
Si       0.69748893      -2.06716842      -1.05976259       0.00000000
Si      -1.43837279       1.60840944      -1.11960321       0.00000000
Si      -1.07980057      -3.20337963      -0.06660852       0.00000000
Si      -0.86476117      -2.65109976       2.25985540       0.00000000
Si       3.35362230       0.35196174      -1.65927378       0.00000000
Si       0.97476102      -1.55642805      -3.34278767       0.00000000
Si      -0.80009638       3.72522719      -0.17530920       0.00000000
Si      -2.94895331       0.33503643       2.44441866       0.00000000
