10
Lattice="16.28999089631971 0.0 0.0 0.0 16.28999089631971 0.0 0.0 0.0 34.5300574570662" Properties=species:S:1:pos:R:3:initial_magmoms:R:1 pbc="T T T"
Si      -1.34970795      -1.36175345      -1.37215619       0.00000000
Si       1.36860435       1.35337320      -1.37726664       0.00000000
Si       1.30961826      -1.43974997       1.38766019       0.00000000
Si      -1.43335710       1.34732961       1.43831582       0.00000000
Si       2.70568755       2.68485264       0.00783833       0.00000000
Si      -2.70648576       2.71458189      -0.00362566       0.00000000
Si      -2.70221778      -0.20185916       2.72017586       0.00000000
Si       2.71705797      -2.71325330      -0.01363938       0.00000000
Si      -2.70669753      -0.00373367      -2.73436772       0.00000000
Si       0.00724905       2.70759348      -2.73398789       0.00000000
