10
Lattice="16.28999089631971 0.0 0.0 0.0 16.28999089631971 0.0 0.0 0.0 34.5300574570662" Properties=species:S:1:pos:R:3:initial_magmoms:R:1 pbc="T T T"
Si       1.22487768      -1.53176436      -1.39594741       0.00000000
Si       1.60116039       1.86423542       0.16864489       0.00000000
Si      -1.61398062       1.10213058      -1.56276221       0.00000000
Si      -0.31024305      -1.88649540       2.01306894       0.00000000
Si      -2.40821586       1.35670418       2.06196353       0.00000000
Si       2.39785542      -0.13576023      -2.89527788       0.00000000
Si       3.50891487       0.99942701      -1.08997640       0.00000000
Si      -0.34511994       2.65131935      -2.84462225       0.00000000
Si      -3.32671122       2.08411784      -0.10245074       0.00000000
Si      -0.16692363      -2.83397067      -2.80574139       0.00000000
