10
Lattice="16.28999089631971 0.0 0.0 0.0 16.28999089631971 0.0 0.0 0.0 34.5300574570662" Properties=species:S:1:pos:R:3:initial_magmoms:R:1 pbc="T T T"
Si      -1.33942896      -1.14624585      -1.66507483       0.00000000
Si       0.60685137      -1.93332978       1.34819232       0.00000000
Si       1.31738859       1.37541357      -1.60751319       0.00000000
Si       2.13695478       0.99481401       2.81831033       0.00000000
Si       2.51460585      -2.79813819       0.08957102       0.00000000
Si      -2.60828964      -2.69543462      -0.38321479       0.00000000
Si       0.92339865      -1.00266579       3.58066537       0.00000000
Si      -0.82528398       2.12977089       3.16185007       0.00000000
Si       0.09392814      -2.49357546      -3.10339065       0.00000000
Si       3.21185043       2.35059813      -0.54996053       0.00000000
