10
Lattice="16.28999089631971 0.0 0.0 0.0 16.28999089631971 0.0 0.0 0.0 34.5300574570662" Properties=species:S:1:pos:R:3:initial_magmoms:R:1 pbc="T T T"
Si      -0.85853187      -0.96562233       1.93323541       0.00000000
Si      -1.52361999      -0.01966203      -1.76731839       0.00000000
Si       0.59404743       2.25155493       0.55496739       0.00000000
Si       2.00754702      -1.13306724      -0.72347417       0.00000000
Si       2.40112971       1.72305846       1.93730996       0.00000000
Si       3.47416830      -0.16426836       0.91480532       0.00000000
Si      -0.62297847       1.51544241      -3.25010894       0.00000000
Si      -1.28523213      -3.16908755       1.24791697       0.00000000
Si       2.17188054       2.66113440      -1.31065812       0.00000000
Si      -2.74168845       0.23436423       2.79469176       0.00000000
