10
Lattice="16.28999089631971 0.0 0.0 0.0 16.28999089631971 0.0 0.0 0.0 34.5300574570662" Properties=species:S:1:pos:R:3:initial_magmoms:R:1 pbc="T T T"
Si      -2.13094377      -0.13402597      -0.90662170       0.00000000
Si       1.33216362      -0.92767545      -1.69055803       0.00000000
Si       0.42670026       2.20346522       0.68531843       0.00000000
Si       0.06546951      -1.50474870       1.84594337       0.00000000
Si       1.15763256      -3.13358580      -0.90765760       0.00000000
Si       0.54374391       0.08805234       3.48988580       0.00000000
Si       1.80999819       1.77049331       2.48461167       0.00000000
Si       1.28523213       3.16908755      -1.24791697       0.00000000
Si      -3.55537395      -0.05902682       0.94343076       0.00000000
Si      -2.24678196      -2.22085710      -1.96013434       0.00000000
