10
Lattice="16.28999089631971 0.0 0.0 0.0 16.28999089631971 0.0 0.0 0.0 34.5300574570662" Properties=species:S:1:pos:R:3:initial_magmoms:R:1 pbc="T T T"
Si       1.38329793      -0.43297191       1.79929324       0.00000000
Si       0.85853187       0.96562233      -1.93323541       0.00000000
Si      -0.42670026      -2.20346522      -0.68531843       0.00000000
Si      -1.88315658       1.19998656       0.86145635       0.00000000
Si       0.11704365      -2.11541288       2.80456736       0.00000000
Si      -3.18526515      -0.59592078       1.77843707       0.00000000
Si       1.45257930       3.21717726      -1.37826801       0.00000000
Si      -2.55764403      -2.33749120      -1.59194013       0.00000000
Si      -2.90388798       2.34750303      -0.96653138       0.00000000
Si      -0.66508812       0.94596030      -3.70055380       0.00000000
