10
Lattice="16.28999089631971 0.0 0.0 0.0 16.28999089631971 0.0 0.0 0.0 34.5300574570662" Properties=species:S:1:pos:R:3:initial_magmoms:R:1 pbc="T T T"
Si       1.35567009       1.35749457       1.35830963       0.00000000
Si      -1.35708732       1.35747828      -1.35737732       0.00000000
Si       1.35808101      -1.35799956      -1.35720467       0.00000000
Si      -1.35834165      -1.36036161       1.35806792       0.00000000
Si      -0.00190593      -2.71199178      -2.71420215       0.00000000
Si       0.00485442       2.71321353       2.71458198       0.00000000
Si      -2.71316466      -0.00068418       2.71503088       0.00000000
Si      -2.71456560      -2.71476108      -0.00017265       0.00000000
Si       0.00301365      -2.71458189       2.71478916       0.00000000
Si      -0.00083079       2.71608057      -2.71364967       0.00000000
