10
Lattice="16.28999089631971 0.0 0.0 0.0 16.28999089631971 0.0 0.0 0.0 34.5300574570662" Properties=species:S:1:pos:R:3:initial_magmoms:R:1 pbc="T T T"
Si       1.18933290      -1.46992815       1.32823048       0.00000000
Si       1.25740881       0.73762749      -1.83098982       0.00000000
Si      -1.54263042       1.26612396       1.29154573       0.00000000
Si      -1.12774041      -1.63450602      -1.43392847       0.00000000
Si      -1.41929883       0.47030859      -2.72821933       0.00000000
Si       2.47811625       2.32990983      -0.35215153       0.00000000
Si       2.52858267      -0.10699272       2.67171289       0.00000000
Si      -0.19165185       2.61200376       2.66836348       0.00000000
Si       2.45363238      -2.90716227      -0.07552764       0.00000000
Si       0.72156555      -3.28326579      -1.80084506       0.00000000
