10
Lattice="16.28999089631971 0.0 0.0 0.0 16.28999089631971 0.0 0.0 0.0 34.5300574570662" Properties=species:S:1:pos:R:3:initial_magmoms:R:1 pbc="T T T"
Si       1.35628911      -1.29733560      -1.36317837       0.00000000
Si      -1.31584104       1.41724629      -1.33838577       0.00000000
Si       1.76326218       1.04956470       1.15523825       0.00000000
Si      -1.67839128      -0.99544932       1.35748091       0.00000000
Si       0.20593818       2.22804846       2.62532174       0.00000000
Si      -2.59054983       2.71241532       0.15738809       0.00000000
Si       2.74691754      -2.59229286      -0.02931604       0.00000000
Si       0.03505608      -2.65844655      -2.69728242       0.00000000
Si      -2.73756708      -2.64513762      -0.02002744       0.00000000
Si      -2.68811064       0.06017526      -2.69521061       0.00000000
