10
Lattice="16.28999089631971 0.0 0.0 0.0 16.28999089631971 0.0 0.0 0.0 34.5300574570662" Properties=species:S:1:pos:R:3:initial_magmoms:R:1 pbc="T T T"
Si       1.67839128       0.99544932      -1.35748091       0.00000000
Si      -1.05917580      -1.64968830      -1.37750835       0.00000000
Si      -1.64281392       1.89361476       0.32941693       0.00000000
Si       0.18790515      -1.55035188       2.05661137       0.00000000
Si      -2.39748075      -0.29128149      -2.69251726       0.00000000
Si       0.36255024       2.41269561      -2.69586668       0.00000000
Si       2.44804491      -2.27326950       1.60899799       0.00000000
Si      -2.52330471      -2.83838589       0.11167027       0.00000000
Si       1.88432946       3.22349778       1.26784083       0.00000000
Si      -3.67310178       1.08999648      -1.15009327       0.00000000
