10
Lattice="16.28999089631971 0.0 0.0 0.0 16.28999089631971 0.0 0.0 0.0 34.5300574570662" Properties=species:S:1:pos:R:3:initial_magmoms:R:1 pbc="T T T"
Si       0.82510479       0.21076002      -2.16327478       0.00000000
Si      -2.02378815       1.33002963       0.01764487       0.00000000
Si      -0.16863408      -2.40841134       0.38100487       0.00000000
Si       1.71892080       1.19407329       1.42391678       0.00000000
Si       2.66703138      -1.26480447      -1.76334743       0.00000000
Si       1.95989877      -3.20847840      -0.44650842       0.00000000
Si       0.90109764       2.64666888      -2.57998374       0.00000000
Si      -0.43347690      -2.56738545       2.82877295       0.00000000
Si      -3.80402451      -0.20346210       0.55921459       0.00000000
Si      -1.45394766       3.28966776       1.45047040       0.00000000
