10
Lattice="16.28999089631971 0.0 0.0 0.0 16.28999089631971 0.0 0.0 0.0 34.5300574570662" Properties=species:S:1:pos:R:3:initial_magmoms:R:1 pbc="T T T"
Si       1.35575154       1.35610992      -1.35875852       0.00000000
Si       1.35713619      -1.35697329       1.35727373       0.00000000
Si      -1.35757602       1.35744570       1.35772262       0.00000000
Si      -1.35876519      -1.35967743      -1.35744638       0.00000000
Si       2.71375110       0.00125433       2.71399497       0.00000000
Si       2.71500543       2.71492398      -0.00034530       0.00000000
Si       2.71515204      -2.71495656       0.00010359       0.00000000
Si      -2.71554300      -2.71461447       0.00020718       0.00000000
Si      -2.71612944       0.00151497       2.71451292       0.00000000
Si       0.00311139      -2.71617831      -2.71465104       0.00000000
