10
Lattice="16.28999089631971 0.0 0.0 0.0 16.28999089631971 0.0 0.0 0.0 34.5300574570662" Properties=species:S:1:pos:R:3:initial_magmoms:R:1 pbc="T T T"
Si      -1.35249354       1.35470246       1.35717014       0.00000000
Si      -1.34783460      -1.36700534      -1.36135518       0.00000000
Si       1.36140417      -1.36022921       1.35672125       0.00000000
Si       1.38054492       1.34455379      -1.35712525       0.00000000
Si       2.53949697      -0.09506844      -2.85862420       0.00000000
Si      -2.70696306       2.70810824      -0.00376378       0.00000000
Si      -2.71001092      -0.00311139       2.71358061       0.00000000
Si       0.00498474       2.71245767       2.71309719       0.00000000
Si      -2.70754461      -2.71855406      -0.00345301       0.00000000
Si       0.00348606      -2.71677845       2.71420215       0.00000000
