10
Lattice="16.28999089631971 0.0 0.0 0.0 16.28999089631971 0.0 0.0 0.0 34.5300574570662" Properties=species:S:1:pos:R:3:initial_magmoms:R:1 pbc="T T T"
Si       1.17297774       1.39600413      -1.49933046       0.00000000
Si      -1.39180131      -1.30220631      -1.40979397       0.00000000
Si      -1.22487768       1.53176436       1.39594741       0.00000000
Si       1.40468670      -1.78657317       1.05813967       0.00000000
Si       2.28403719       2.53119137       0.30597101       0.00000000
Si      -1.53512073      -0.35473104       3.40901636       0.00000000
Si       0.37628271       3.39599978       1.56459231       0.00000000
Si      -2.12245668      -3.11645619       0.11971578       0.00000000
Si      -2.83885830       2.63389493      -0.16681480       0.00000000
Si       2.58041745       0.12250080      -2.90063004       0.00000000
