10
Lattice="16.28999089631971 0.0 0.0 0.0 16.28999089631971 0.0 0.0 0.0 34.5300574570662" Properties=species:S:1:pos:R:3:initial_magmoms:R:1 pbc="T T T"
Si       2.07041013      -0.54017640       1.06853323       0.00000000
Si      -1.62986337      -0.15165990       1.78113042       0.00000000
Si      -1.10597697      -1.98874836      -1.02972142       0.00000000
Si       0.31024305       1.88649540      -2.01306894       0.00000000
Si       1.29867138      -2.80517058       1.67975011       0.00000000
Si      -0.94297923      -3.30175494       0.95914194       0.00000000
Si      -3.23136585       1.33773480       0.80372207       0.00000000
Si       1.53512073       0.35473104      -3.40901636       0.00000000
Si      -0.32443164      -0.32462712       3.82872944       0.00000000
Si      -2.09797281       3.24319958       0.04889459       0.00000000
