10
Lattice="16.28999089631971 0.0 0.0 0.0 16.28999089631971 0.0 0.0 0.0 34.5300574570662" Properties=species:S:1:pos:R:3:initial_magmoms:R:1 pbc="T T T"
Si       1.80496458      -0.39252384      -1.43534623       0.00000000
Si      -1.44552573      -1.84819824      -0.15414226       0.00000000
Si       0.96629022      -0.26391429       2.15958006       0.00000000
Si      -1.47004218       1.90478385      -0.27748370       0.00000000
Si      -2.61265536      -1.55709594       1.89000375       0.00000000
Si       0.94931604      -2.06374752      -2.91433848       0.00000000
Si       3.21515730       0.33079551       1.86500398       0.00000000
Si       2.48767848       1.72321551      -2.27698232       0.00000000
Si       3.73554135      -0.97704162      -0.10728495       0.00000000
Si      -2.49681717       0.52973518       2.94351639       0.00000000
