10
Lattice="16.28999089631971 0.0 0.0 0.0 16.28999089631971 0.0 0.0 0.0 34.5300574570662" Properties=species:S:1:pos:R:3:initial_magmoms:R:1 pbc="T T T"
Si       1.42443018      -0.07499916      -1.85005245       0.00000000
Si      -0.32855301      -2.20346752       0.76770720       0.00000000
Si      -1.89679946       0.93048643      -1.06445868       0.00000000
Si       0.79680906       1.66657126       1.52032475       0.00000000
Si      -1.59253809      -3.13382200      -1.02775320       0.00000000
Si      -2.21517284       2.93171782       0.17717382       0.00000000
Si       3.55537395       0.05902682      -0.94343076       0.00000000
Si      -1.16266454       2.59190842       2.36375640       0.00000000
Si       1.89594423      -3.03556072       0.95741544       0.00000000
Si       0.64739718       1.34371975      -3.52731640       0.00000000
