10
Lattice="16.28999089631971 0.0 0.0 0.0 16.28999089631971 0.0 0.0 0.0 34.5300574570662" Properties=species:S:1:pos:R:3:initial_magmoms:R:1 pbc="T T T"
Si       0.96747776       1.77486066      -1.10213099       0.00000000
Si      -2.32772438       0.35578989      -0.16702198       0.00000000
Si       0.31837339      -2.00123139      -1.24163250       0.00000000
Si       1.05250830      -0.33980940       2.18658258       0.00000000
Si      -2.90052965      -1.82657001       0.58007076       0.00000000
Si       3.01198190      -1.26514656       1.34315093       0.00000000
Si       2.21517284      -2.93171782      -0.17717382       0.00000000
Si      -1.76369942      -3.05117727      -1.06936195       0.00000000
Si       0.00118265       1.71574425      -3.31108906       0.00000000
Si       0.39969958       3.81502026      -0.05883925       0.00000000
