10
Lattice="16.28999089631971 0.0 0.0 0.0 16.28999089631971 0.0 0.0 0.0 34.5300574570662" Properties=species:S:1:pos:R:3:initial_magmoms:R:1 pbc="T T T"
Si       1.35624024       1.35599442       1.35734279       0.00000000
Si      -1.35739683       1.35745563      -1.35730826       0.00000000
Si      -1.35773892      -1.35747065       1.35799886       0.00000000
Si       1.35757602      -1.35823628      -1.35792980       0.00000000
Si       2.71417464      -0.00176798      -2.71409856       0.00000000
Si       2.71461447       2.71418946       0.00024171       0.00000000
Si       0.00255753       2.71500396       2.71454745       0.00000000
Si      -2.71502172       2.71482477      -0.00041436       0.00000000
Si       2.71474479      -2.71533989      -0.00048342       0.00000000
Si      -2.71500543      -2.71571456       0.00013812       0.00000000
