10
Lattice="16.28999089631971 0.0 0.0 0.0 16.28999089631971 0.0 0.0 0.0 34.5300574570662" Properties=species:S:1:pos:R:3:initial_magmoms:R:1 pbc="T T T"
Si      -1.35624024      -1.35599442      -1.35734279       0.00000000
Si      -1.35368271       1.35900954       1.35720467       0.00000000
Si       1.35837423       1.35819504      -1.35710108       0.00000000
Si       1.36034532      -1.35562841       1.35786074       0.00000000
Si       2.69273700      -0.00688741       2.73302105       0.00000000
Si      -2.71397916      -2.71346507       0.00065607       0.00000000
Si      -2.71503801       2.71322982       0.00048342       0.00000000
Si      -2.71363707       0.00146121      -2.71465104       0.00000000
Si      -0.00522909      -2.70761696       2.72083193       0.00000000
Si       0.00133578      -2.71423070      -2.71527259       0.00000000
