10
Lattice="16.28999089631971 0.0 0.0 0.0 16.28999089631971 0.0 0.0 0.0 34.5300574570662" Properties=species:S:1:pos:R:3:initial_magmoms:R:1 pbc="T T T"
Si       1.33708320       1.33147944       1.38510497       0.00000000
Si       1.35368271      -1.35900954      -1.35720467       0.00000000
Si      -1.36135530       1.35422028      -1.35672125       0.00000000
Si      -1.36860435      -1.35337320       1.37726664       0.00000000
Si       2.48950296      -0.24742881       2.86047156       0.00000000
Si      -0.14514390       2.51561583       2.87314410       0.00000000
Si       2.71205694      -0.00081450      -2.71430574       0.00000000
Si       2.71243161       2.71549413       0.00749303       0.00000000
Si       2.71402803      -2.71463795       0.00065607       0.00000000
Si      -0.00301365       2.71458189      -2.71478916       0.00000000
