10
Lattice="16.28999089631971 0.0 0.0 0.0 16.28999089631971 0.0 0.0 0.0 34.5300574570662" Properties=species:S:1:pos:R:3:initial_magmoms:R:1 pbc="T T T"
Si      -1.12057281       1.74054252       1.15765535       0.00000000
Si       1.73068218      -1.19785487       1.12353964       0.00000000
Si       0.84450618       1.88322663      -1.20012735       0.00000000
Si      -1.05282270      -1.80721490      -1.61321066       0.00000000
Si      -2.17777752       0.11014809       2.46889846       0.00000000
Si       2.49214194      -2.22176282      -0.93535072       0.00000000
Si       2.29820949       0.88319982      -2.73985800       0.00000000
Si      -3.17601243       1.79193747      -0.90568938       0.00000000
Si       0.58047786      -2.75519516       2.52089039       0.00000000
Si       0.56814633       2.87839902       2.61537504       0.00000000
