10
Lattice="16.28999089631971 0.0 0.0 0.0 16.28999089631971 0.0 0.0 0.0 34.5300574570662" Properties=species:S:1:pos:R:3:initial_magmoms:R:1 pbc="T T T"
Si       1.35664749      -1.35894438      -1.36469769       0.00000000
Si      -1.35977517       1.35658233      -1.36397256       0.00000000
Si       1.37117817       1.36992384       1.35620329       0.00000000
Si      -1.37534841      -1.38401469       1.37761194       0.00000000
Si      -2.71059084       2.71230129      -0.00770021       0.00000000
Si      -2.71243161      -2.71549413      -0.00749303       0.00000000
Si       2.71407690      -2.71432125      -0.00207180       0.00000000
Si       2.71722087       2.71337643      -0.01367391       0.00000000
Si       0.00001629       2.71402803      -2.72204048       0.00000000
Si       2.71529865      -0.00042354      -2.72190236       0.00000000
