10
Lattice="16.28999089631971 0.0 0.0 0.0 16.28999089631971 0.0 0.0 0.0 34.5300574570662" Properties=species:S:1:pos:R:3:initial_magmoms:R:1 pbc="T T T"
Si       1.34604270       1.34345259      -1.36987720       0.00000000
Si      -1.36990755       1.40853114       1.30406288       0.00000000
Si      -1.37117817      -1.36992384      -1.35620329       0.00000000
Si       1.40869404      -1.34887716       1.38375830       0.00000000
Si      -2.33429184      -0.59461758       2.56700044       0.00000000
Si      -0.17096355      -2.71485882       2.56275324       0.00000000
Si       2.67048486       2.69938332      -0.00597370       0.00000000
Si      -0.01215234       2.70023040      -2.72103911       0.00000000
Si       2.70203859      -0.01177767      -2.72186783       0.00000000
Si       2.71459818      -2.73136059      -0.00611182       0.00000000
