10
Lattice="16.28999089631971 0.0 0.0 0.0 16.28999089631971 0.0 0.0 0.0 34.5300574570662" Properties=species:S:1:pos:R:3:initial_magmoms:R:1 pbc="T T T"
Si       1.02288168       2.12421600       0.11073796       0.00000000
Si      -1.12109409      -0.67025205       1.96983729       0.00000000
Si      -1.44267498      -0.75854385      -1.71907987       0.00000000
Si       1.94214267      -1.45127610      -0.01754128       0.00000000
Si       0.59271165      -0.62571519      -3.21043389       0.00000000
Si       1.30170132      -2.64551229      -1.93226857       0.00000000
Si      -0.44672067      -2.88060957       2.21565691       0.00000000
Si       3.27277503       1.76296896       0.96300931       0.00000000
Si      -0.47183985       3.59259660       1.29798559       0.00000000
Si      -2.65623111      -2.75602365      -0.95672484       0.00000000
