10
Lattice="16.28999089631971 0.0 0.0 0.0 16.28999089631971 0.0 0.0 0.0 34.5300574570662" Properties=species:S:1:pos:R:3:initial_magmoms:R:1 pbc="T T T"
Si      -2.12853285       0.80006706       0.82751329       0.00000000
Si       0.70713261       1.94367393      -1.31683901       0.00000000
Si       0.55744380      -2.34576000      -0.47057589       0.00000000
Si       1.76627583      -0.15913701       1.82805679       0.00000000
Si       3.52486278       0.52018857       0.31218642       0.00000000
Si       2.69790093       2.64534939      -0.19858247       0.00000000
Si      -1.95989877       3.20847840       0.44650842       0.00000000
Si       0.78727941      -2.48502321      -2.76364922       0.00000000
Si      -3.73335849      -0.18806805      -0.72409571       0.00000000
Si      -1.13479398       3.41923842      -1.71676636       0.00000000
