10
Lattice="16.28999089631971 0.0 0.0 0.0 16.28999089631971 0.0 0.0 0.0 34.5300574570662" Properties=species:S:1:pos:R:3:initial_magmoms:R:1 pbc="T T T"
Si       1.99115928       0.66047805      -1.14146075       0.00000000
Si      -2.05561881       1.00554912      -0.81007560       0.00000000
Si      -0.56500236      -2.34657450       0.37779357       0.00000000
Si      -0.59945571       0.81037863       2.24728646       0.00000000
Si       1.69381791       0.29364354       2.52432126       0.00000000
Si      -2.01870567      -1.34654769       1.91752422       0.00000000
Si      -3.42810018      -0.56078325       0.26087473       0.00000000
Si       3.43499085       0.82626138       0.75866032       0.00000000
Si      -0.84678678       3.19217211       1.48855708       0.00000000
Si      -1.82578320       0.86628591      -3.10314894       0.00000000
