10
Lattice="16.28999089631971 0.0 0.0 0.0 16.28999089631971 0.0 0.0 0.0 34.5300574570662" Properties=species:S:1:pos:R:3:initial_magmoms:R:1 pbc="T T T"
Si       0.22983561      -0.13926321      -2.29307334       0.00000000
Si      -1.37248137      -1.56633237       1.07095033       0.00000000
Si       2.05561881      -1.00554912       0.81007560       0.00000000
Si      -0.55744380       2.34576000       0.47057589       0.00000000
Si       1.45616310      -0.19517049       3.05736206       0.00000000
Si       1.20883203       2.18662299       2.29863268       0.00000000
Si       0.03691314      -2.35209681       2.72759982       0.00000000
Si       1.70914680       1.63618389      -2.78965037       0.00000000
Si      -1.64652804      -3.26091591      -0.49785465       0.00000000
Si      -3.17752740      -0.52031889       2.00533421       0.00000000
