10
Lattice="16.28999089631971 0.0 0.0 0.0 16.28999089631971 0.0 0.0 0.0 34.5300574570662" Properties=species:S:1:pos:R:3:initial_magmoms:R:1 pbc="T T T"
Si       2.29327362      -0.51673509       0.27703481       0.00000000
Si      -0.80221734       0.67274442       2.22904943       0.00000000
Si       0.59945571      -0.81037863      -2.24728646       0.00000000
Si      -0.24733107       2.38179348      -0.75872938       0.00000000
Si      -1.41924996      -2.15692632      -0.32976223       0.00000000
Si      -1.45616310       0.19517049      -3.05736206       0.00000000
Si       0.03445335      -3.15695313      -1.86949289       0.00000000
Si      -2.82864447      -1.37116188      -1.98641173       0.00000000
Si       1.07911476       1.61896536       3.44046777       0.00000000
Si       2.62060488      -2.48554449       1.69919055       0.00000000
