10
Lattice="16.28999089631971 0.0 0.0 0.0 16.28999089631971 0.0 0.0 0.0 34.5300574570662" Properties=species:S:1:pos:R:3:initial_magmoms:R:1 pbc="T T T"
Si      -1.24111881       1.43785314       1.39120989       0.00000000
Si       1.56887361       1.23926175      -1.25184166       0.00000000
Si      -1.65802878      -1.15958736      -1.24765316       0.00000000
Si       1.48817295      -1.28555793       1.36574395       0.00000000
Si       0.17515008       1.03488741      -3.23055598       0.00000000
Si      -2.73439053       2.55220317      -0.05159139       0.00000000
Si      -2.59447572       0.08034228       2.75369420       0.00000000
Si       0.12070890      -2.63598264       2.75272736       0.00000000
Si      -2.67965613      -2.72893338       0.09863171       0.00000000
Si      -3.40879653       0.59139216      -1.67100507       0.00000000
