10
Lattice="16.28999089631971 0.0 0.0 0.0 16.28999089631971 0.0 0.0 0.0 34.5300574570662" Properties=species:S:1:pos:R:3:initial_magmoms:R:1 pbc="T T T"
Si      -1.35728280       1.35734796      -1.35748091       0.00000000
Si       1.35900954       1.35612621       1.35720467       0.00000000
Si       1.35757602      -1.35690813      -1.35796433       0.00000000
Si      -1.35979146      -1.35744570       1.35806792       0.00000000
Si      -2.71060713      -0.00172674       2.71434027       0.00000000
Si       2.71720458      -0.00065160       2.70836657       0.00000000
Si       2.71261080       0.00001629      -2.71513447       0.00000000
Si      -0.00029322       2.71357191      -2.71565242       0.00000000
Si      -0.00001629      -2.71466334      -2.71485822       0.00000000
Si       2.71528236      -2.71445157       0.00013812       0.00000000
