10
Lattice="16.28999089631971 0.0 0.0 0.0 16.28999089631971 0.0 0.0 0.0 34.5300574570662" Properties=species:S:1:pos:R:3:initial_magmoms:R:1 pbc="T T T"
Si      -1.35469269       1.35940050      -1.35720467       0.00000000
Si      -1.35698958      -1.35622395       1.35817151       0.00000000
Si       1.35707103       1.35912357       1.35772262       0.00000000
Si       1.36049193      -1.35692442      -1.35817151       0.00000000
Si       0.00185706      -2.70352098      -2.69569403       0.00000000
Si       2.71290402      -2.71355562       0.00051795       0.00000000
Si      -2.71599912      -2.71243161       0.00176103       0.00000000
Si       0.00029322      -2.71357191       2.71565242       0.00000000
Si      -2.71500543       0.00175932       2.71534165       0.00000000
Si       2.71513575       0.00167787       2.71527259       0.00000000
