10
Lattice="16.28999089631971 0.0 0.0 0.0 16.28999089631971 0.0 0.0 0.0 34.5300574570662" Properties=species:S:1:pos:R:3:initial_magmoms:R:1 pbc="T T T"
Si      -1.76326218      -1.04956470      -1.15523825       0.00000000
Si       1.05000453       1.81662822      -1.08576373       0.00000000
Si      -1.55732400       1.17848376       1.47008349       0.00000000
Si       1.71602118      -1.91251116       0.28912033       0.00000000
Si       2.34403326       0.37471887      -2.47860344       0.00000000
Si      -0.40697307      -2.34690030      -2.51841662       0.00000000
Si      -0.34155243      -2.24586972       2.91461472       0.00000000
Si       2.38192380       3.02285385       0.58096854       0.00000000
Si       3.59442108      -1.07129556      -1.05893386       0.00000000
Si      -0.48117402       1.84246416       3.42704106       0.00000000
