10
Lattice="16.28999089631971 0.0 0.0 0.0 16.28999089631971 0.0 0.0 0.0 34.5300574570662" Properties=species:S:1:pos:R:3:initial_magmoms:R:1 pbc="T T T"
Si       0.35251560       1.35670518       2.00858003       0.00000000
Si       1.69583787      -0.92131353      -1.57736844       0.00000000
Si      -1.36405944       1.55208092      -1.44042215       0.00000000
Si      -1.16725995      -2.10170322       1.26870408       0.00000000
Si      -2.24340993      -2.76568362      -0.68825349       0.00000000
Si       1.00266579       3.45806468       1.07512847       0.00000000
Si       0.36391860      -2.12753916      -3.24410071       0.00000000
Si      -3.27181392       2.41688933      -0.18180085       0.00000000
Si      -2.47511889       0.41689368      -3.24572362       0.00000000
Si       3.17883060      -2.55487473      -0.52499529       0.00000000
