10
Lattice="16.28999089631971 0.0 0.0 0.0 16.28999089631971 0.0 0.0 0.0 34.5300574570662" Properties=species:S:1:pos:R:3:initial_magmoms:R:1 pbc="T T T"
Si      -0.06586047       1.69464448       1.55772082       0.00000000
Si      -1.86839784       0.19977504      -1.37415893       0.00000000
Si       0.07863183      -1.91223423       1.35993254       0.00000000
Si       1.91620899       0.62713309      -1.21242005       0.00000000
Si       3.30631614       0.35425441       0.66221781       0.00000000
Si       0.05694984      -3.38641407      -0.56691480       0.00000000
Si       2.16948591       1.57886168       2.31165052       0.00000000
Si      -1.72884141      -1.37103156       2.78198469       0.00000000
Si      -0.69002811       3.53755988       0.27786353       0.00000000
Si      -2.15664939       2.56876100      -1.36041596       0.00000000
