10
Lattice="16.28999089631971 0.0 0.0 0.0 16.28999089631971 0.0 0.0 0.0 34.5300574570662" Properties=species:S:1:pos:R:3:initial_magmoms:R:1 pbc="T T T"
Si       1.35509017       1.35718506      -1.39149303       0.00000000
Si      -1.35781886      -1.36062225      -1.38962841       0.00000000
Si       1.39314361      -1.38601836       1.45948275       0.00000000
Si      -1.46958673       1.40792841       1.40413104       0.00000000
Si       2.55729217       0.17677908       2.77293781       0.00000000
Si       2.68311613       2.72388348      -0.03124972       0.00000000
Si      -2.69957947      -2.72157030      -0.03570410       0.00000000
Si       2.71711336      -2.71441899      -0.01964761       0.00000000
Si      -2.74369279       2.70917361      -0.03556598       0.00000000
Si       0.00116311       2.70935280      -2.75063138       0.00000000
