10
Lattice="16.28999089631971 0.0 0.0 0.0 16.28999089631971 0.0 0.0 0.0 34.5300574570662" Properties=species:S:1:pos:R:3:initial_magmoms:R:1 pbc="T T T"
Si       1.80747324      -0.54120267      -1.42205215       0.00000000
Si      -1.88030583      -1.15390215      -0.85144263       0.00000000
Si      -0.31107384      -0.49529745       2.31002760       0.00000000
Si       0.04790889       2.40997748       0.25282922       0.00000000
Si       1.72884141       1.37103156      -2.78198469       0.00000000
Si      -3.65511762       0.39902355      -0.32506614       0.00000000
Si       1.66298094       3.06567604      -1.22426387       0.00000000
Si      -2.12447664       0.89264313       3.12597332       0.00000000
Si      -3.17684322       1.99182458       1.31887628       0.00000000
Si       3.80948166      -1.25441145      -0.31235907       0.00000000
