10
Lattice="16.28999089631971 0.0 0.0 0.0 16.28999089631971 0.0 0.0 0.0 34.5300574570662" Properties=species:S:1:pos:R:3:initial_magmoms:R:1 pbc="T T T"
Si      -1.89392427      -0.23651451       1.42091266       0.00000000
Si      -1.40007663       0.88599681      -1.73841671       0.00000000
Si       1.07364132      -1.50542406      -1.54553171       0.00000000
Si       0.91295676       2.12564952       0.89705686       0.00000000
Si       1.34003169      -2.56030582       1.03307084       0.00000000
Si      -2.60291394       1.78328259       0.14274734       0.00000000
Si      -1.25348292       0.95772168       3.33563994       0.00000000
Si       0.17958096       2.25197847      -2.91741165       0.00000000
Si      -0.73089972       3.71048733       0.03428837       0.00000000
Si       3.16573574      -2.36928439      -0.46007874       0.00000000
