10
Lattice="16.28999089631971 0.0 0.0 0.0 16.28999089631971 0.0 0.0 0.0 34.5300574570662" Properties=species:S:1:pos:R:3:initial_magmoms:R:1 pbc="T T T"
Si      -0.55454418       1.50236154       1.69808558       0.00000000
Si      -0.02873556      -2.14899961       0.95903835       0.00000000
Si       2.26522224       0.40865094      -0.49436711       0.00000000
Si      -1.40673924       0.00783549      -1.91721345       0.00000000
Si      -2.63497266       0.76142718       2.44932193       0.00000000
Si      -0.76908348      -1.86962448      -3.17348670       0.00000000
Si       2.34572742       0.83968434      -2.84993988       0.00000000
Si       3.66224679      -1.38208595       0.26211781       0.00000000
Si       0.79734663       0.98508888       3.73601618       0.00000000
Si       3.12625367       2.34504324       0.59194911       0.00000000
