10
Lattice="16.28999089631971 0.0 0.0 0.0 16.28999089631971 0.0 0.0 0.0 34.5300574570662" Properties=species:S:1:pos:R:3:initial_magmoms:R:1 pbc="T T T"
Si      -1.35602847      -1.35065277       1.38696269       0.00000000
Si       1.35542574       1.36283769       1.38485635       0.00000000
Si      -1.44700812       1.38834783      -1.36572669       0.00000000
Si       1.40351382      -1.28661678      -1.53680596       0.00000000
Si       2.71107954      -2.70252729      -0.01035557       0.00000000
Si      -2.71614573      -2.71039536       0.01531064       0.00000000
Si      -2.71293660       2.72924289       0.05185727       0.00000000
Si       2.72344838       2.72026710       0.00516915       0.00000000
Si       0.00019548      -2.70987408       2.74699882       0.00000000
Si       2.71554300       0.00425169       2.74672258       0.00000000
