10
Lattice="16.28999089631971 0.0 0.0 0.0 16.28999089631971 0.0 0.0 0.0 34.5300574570662" Properties=species:S:1:pos:R:3:initial_magmoms:R:1 pbc="T T T"
Si      -1.35728280      -1.35659862      -1.35779168       0.00000000
Si      -1.35669636       1.35801585       1.35855134       0.00000000
Si       1.35806472       1.35752715      -1.35806792       0.00000000
Si       1.35795114      -1.35697329       1.35889664       0.00000000
Si      -2.71428867      -2.71462750       0.00003453       0.00000000
Si      -2.71440270       2.71555929       0.00044889       0.00000000
Si       2.71529932       2.71534752       0.00020718       0.00000000
Si       2.71534819      -2.71538987       0.00048342       0.00000000
Si      -2.71534752      -0.00050499       2.71575601       0.00000000
Si      -2.71350675       0.00262269      -2.71782781       0.00000000
