10
Lattice="16.28999089631971 0.0 0.0 0.0 16.28999089631971 0.0 0.0 0.0 34.5300574570662" Properties=species:S:1:pos:R:3:initial_magmoms:R:1 pbc="T T T"
Si      -1.35692442       1.35764118       1.35789527       0.00000000
Si      -1.35915615      -1.35759231      -1.35685937       0.00000000
Si       1.35811359      -1.35778779       1.35803339       0.00000000
Si       1.35812187       1.35962856      -1.35692843       0.00000000
Si      -2.71156824      -0.00096111      -2.71554883       0.00000000
Si       0.00143352      -2.71349046       2.71465104       0.00000000
Si      -2.71275741      -0.00148239       2.71547977       0.00000000
Si      -2.71419093      -2.71451673       0.00031077       0.00000000
Si      -2.71498914       2.71508688       0.00034530       0.00000000
Si       2.71473569      -0.00215028       2.71547977       0.00000000
