10
Lattice="16.28999089631971 0.0 0.0 0.0 16.28999089631971 0.0 0.0 0.0 34.5300574570662" Properties=species:S:1:pos:R:3:initial_magmoms:R:1 pbc="T T T"
Si       1.35692442      -1.35764118      -1.35789527       0.00000000
Si      -1.35583299      -1.35912357       1.35758450       0.00000000
Si      -1.35806472       1.35744570      -1.35754997       0.00000000
Si       1.35635427       1.35933534       1.35820604       0.00000000
Si       0.00236205      -2.71590138       2.70874640       0.00000000
Si       0.00029322       2.71407690      -2.71295907       0.00000000
Si      -0.00257382       2.71221984       2.71582507       0.00000000
Si       2.71504629       0.00198738      -2.71482369       0.00000000
Si      -2.71510317       2.71487511      -0.00010359       0.00000000
Si      -0.00223173      -2.71523349      -2.71475463       0.00000000
