10
Lattice="16.28999089631971 0.0 0.0 0.0 16.28999089631971 0.0 0.0 0.0 34.5300574570662" Properties=species:S:1:pos:R:3:initial_magmoms:R:1 pbc="T T T"
Si      -0.15102459       1.99847349      -1.27768190       0.00000000
Si       1.17853263       0.11446983       2.08713596       0.00000000
Si       1.04531301      -1.71809001      -1.36172811       0.00000000
Si      -2.46943368       0.09202221       0.04178139       0.00000000
Si       0.13082499      -1.69181424       3.15352832       0.00000000
Si      -1.03026105       1.11689127      -3.26664885       0.00000000
Si       0.04500927      -1.05094935      -3.45110852       0.00000000
Si       0.39447864       2.07567180       3.12952992       0.00000000
Si       0.02502144      -3.76364160      -0.63438657       0.00000000
Si       1.95357825       2.70179424      -1.93344259       0.00000000
