10
Lattice="16.28999089631971 0.0 0.0 0.0 16.28999089631971 0.0 0.0 0.0 34.5300574570662" Properties=species:S:1:pos:R:3:initial_magmoms:R:1 pbc="T T T"
Si      -0.82696185       2.12516082      -0.51076890       0.00000000
Si       0.58598388      -1.11379617      -2.06289585       0.00000000
Si      -1.75858695      -0.67932558       1.51587037       0.00000000
Si       1.96579575       1.05355575       1.02057095       0.00000000
Si      -0.95851989       1.06271073       3.02158890       0.00000000
Si      -2.81773017       1.42348536      -1.62902543       0.00000000
Si       1.07935911      -3.21101964      -1.11414746       0.00000000
Si      -3.52486278      -0.52018857      -0.31218642       0.00000000
Si       2.23143678      -1.24229169       2.64003155       0.00000000
Si       0.70959240       2.91934719      -2.17967657       0.00000000
