10
Lattice="16.28999089631971 0.0 0.0 0.0 16.28999089631971 0.0 0.0 0.0 34.5300574570662" Properties=species:S:1:pos:R:3:initial_magmoms:R:1 pbc="T T T"
Si       0.39653118       2.31510222       0.27309838       0.00000000
Si       2.07676323      -1.06052787      -0.46204696       0.00000000
Si      -1.19570229      -0.61481718      -1.98796558       0.00000000
Si      -1.53655425      -0.79418637       1.66890767       0.00000000
Si      -1.60547724       3.02831100      -0.83659470       0.00000000
Si      -1.62715923       1.55413116      -2.76344204       0.00000000
Si       2.99063223      -1.39056327       1.64760261       0.00000000
Si      -0.70959240      -2.91934719       2.17967657       0.00000000
Si       1.77422535       2.94440121      -1.48613997       0.00000000
Si       0.37400211      -1.73182248      -3.32286382       0.00000000
