10
Lattice="16.28999089631971 0.0 0.0 0.0 16.28999089631971 0.0 0.0 0.0 34.5300574570662" Properties=species:S:1:pos:R:3:initial_magmoms:R:1 pbc="T T T"
Si       1.34742735       1.35621973       1.38757387       0.00000000
Si      -1.36567215      -1.36024758       1.38867883       0.00000000
Si       1.45472958      -1.34324082      -1.44921006       0.00000000
Si      -1.36216980       1.41081078      -1.47908893       0.00000000
Si       2.70127296       2.72146346      -0.00781070       0.00000000
Si       2.69765658      -2.72738583       0.02232024       0.00000000
Si      -2.72595231       2.71359539       0.01785550       0.00000000
Si      -2.72593602      -2.71632492       0.03040719       0.00000000
Si       2.70589932      -0.00262269       2.75023429       0.00000000
Si      -0.00961110       2.71411667       2.74954369       0.00000000
