10
Lattice="16.28999089631971 0.0 0.0 0.0 16.28999089631971 0.0 0.0 0.0 34.5300574570662" Properties=species:S:1:pos:R:3:initial_magmoms:R:1 pbc="T T T"
Si      -1.31066082       1.38637674      -1.34984976       0.00000000
Si       1.13570200       1.61969841       1.29587925       0.00000000
Si      -1.04682798      -1.70210952       1.27453966       0.00000000
Si       1.44432746      -1.33043688      -1.34152801       0.00000000
Si      -2.48345937      -0.31545585       2.76554838       0.00000000
Si       0.77247410      -3.42324576       1.34663846       0.00000000
Si      -2.65370616       0.01643661      -2.71920901       0.00000000
Si       2.75552585       2.63762793      -0.02579397       0.00000000
Si       0.06504597      -2.69772174      -2.71320078       0.00000000
Si       0.06287940       2.73724128      -2.71610131       0.00000000
