10
Lattice="16.28999089631971 0.0 0.0 0.0 16.28999089631971 0.0 0.0 0.0 34.5300574570662" Properties=species:S:1:pos:R:3:initial_magmoms:R:1 pbc="T T T"
Si       0.16781958      -0.79847064       2.13022950       0.00000000
Si      -1.55564613      -1.39533624      -1.06611612       0.00000000
Si      -0.49785498       2.29381186       0.14616581       0.00000000
Si       2.38670070       0.02091636      -0.28677229       0.00000000
Si       1.32784907       2.48483329      -1.34698376       0.00000000
Si       2.06351524       0.53981802      -2.53578525       0.00000000
Si       1.13270839       1.09972161       3.15881142       0.00000000
Si       2.90438387      -2.22505110      -0.14651112       0.00000000
Si       1.78937572      -2.58170436       1.90654366       0.00000000
Si      -1.93678326      -1.50179139       2.78599018       0.00000000
