10
Lattice="16.28999089631971 0.0 0.0 0.0 16.28999089631971 0.0 0.0 0.0 34.5300574570662" Properties=species:S:1:pos:R:3:initial_magmoms:R:1 pbc="T T T"
Si       0.25787070       2.05785284      -1.06155815       0.00000000
Si       1.67830983       0.04478121       1.68834810       0.00000000
Si       0.85827123      -1.83073536      -1.27415983       0.00000000
Si      -2.26600416       0.04328253       0.93693910       0.00000000
Si      -2.27082600      -2.19331818       1.73741534       0.00000000
Si       0.99821862       1.77847771       3.07096691       0.00000000
Si       2.96287407      -1.12741461      -1.92992052       0.00000000
Si      -1.58690664       2.18729970      -2.59269081       0.00000000
Si       1.40377446      -1.75353705       3.13305198       0.00000000
Si      -0.37978506       3.93531281       0.19471510       0.00000000
