10
Lattice="16.28999089631971 0.0 0.0 0.0 16.28999089631971 0.0 0.0 0.0 34.5300574570662" Properties=species:S:1:pos:R:3:initial_magmoms:R:1 pbc="T T T"
Si      -1.49713082       0.82349208       1.61483357       0.00000000
Si       2.05581429       0.64267308       0.95696655       0.00000000
Si      -0.36647613      -2.31883263       0.21726324       0.00000000
Si      -0.28157265       0.65396205      -2.25025604       0.00000000
Si       1.85104899      -0.35181513       3.15988185       0.00000000
Si      -0.23353344       0.65228418       3.62976714       0.00000000
Si      -2.16036351      -2.51216235       1.81994223       0.00000000
Si       1.94618259       3.07574748       1.13020394       0.00000000
Si      -0.57272382      -1.37376828      -3.51788969       0.00000000
Si       1.78180020       1.39937616      -3.14151185       0.00000000
