10
Lattice="16.28999089631971 0.0 0.0 0.0 16.28999089631971 0.0 0.0 0.0 34.5300574570662" Properties=species:S:1:pos:R:3:initial_magmoms:R:1 pbc="T T T"
Si      -0.99787653       2.05074810      -0.27727652       0.00000000
Si       2.33000757       0.19057671      -0.32382306       0.00000000
Si      -1.21885038      -1.92805182      -0.78904678       0.00000000
Si       1.39372353       0.20437434       1.97871432       0.00000000
Si      -0.17515008      -1.03488741       3.23055598       0.00000000
Si      -2.72943837       1.07735544      -1.77108217       0.00000000
Si      -1.83317886      -2.19447477       1.98290282       0.00000000
Si      -3.48084720      -1.03384485      -0.92865188       0.00000000
Si       2.59502958       1.26921906      -2.54624786       0.00000000
Si       3.38444298      -1.89871353      -0.42133600       0.00000000
