10
Lattice="16.28999089631971 0.0 0.0 0.0 16.28999089631971 0.0 0.0 0.0 34.5300574570662" Properties=species:S:1:pos:R:3:initial_magmoms:R:1 pbc="T T T"
Si       1.35084825      -1.35695700      -1.35865493       0.00000000
Si       1.35524655       1.35609363       1.35806792       0.00000000
Si      -1.35976051       1.35381303      -1.36179717       0.00000000
Si      -1.35948847      -1.35871632       1.35723920       0.00000000
Si       2.71202436       2.71103067       0.00041436       0.00000000
Si       2.71288773      -0.00159642       2.71492728       0.00000000
Si      -0.00208512       2.71381626       2.71537618       0.00000000
Si      -0.00236205      -2.71621089       2.71499634       0.00000000
Si      -2.71688597      -0.00177561       2.71520353       0.00000000
Si       2.71366965      -2.71847520      -0.00065607       0.00000000
