10
Lattice="16.28999089631971 0.0 0.0 0.0 16.28999089631971 0.0 0.0 0.0 34.5300574570662" Properties=species:S:1:pos:R:3:initial_magmoms:R:1 pbc="T T T"
Si       1.32802596       1.36669842       1.36024331       0.00000000
Si      -1.35392706       1.35216774      -1.35913835       0.00000000
Si       1.36062225      -1.36078515      -1.35872399       0.00000000
Si      -1.35509017      -1.35718506       1.39149303       0.00000000
Si       2.66633091       0.00829161       2.67525223       0.00000000
Si      -2.70940886       2.71002069       0.00511045       0.00000000
Si      -2.71054916      -0.00346977      -2.71658473       0.00000000
Si       0.00425169       2.71212210      -2.71641208       0.00000000
Si       2.71578735       2.71360449       0.00006906       0.00000000
Si      -2.71290902      -2.71780731       0.00186462       0.00000000
