10
Lattice="16.28999089631971 0.0 0.0 0.0 16.28999089631971 0.0 0.0 0.0 34.5300574570662" Properties=species:S:1:pos:R:3:initial_magmoms:R:1 pbc="T T T"
Si      -1.34873285      -1.36083469      -1.37819895       0.00000000
Si       1.36375482       1.35373810      -1.37895862       0.00000000
Si       1.34391360      -1.46044804       1.31210839       0.00000000
Si      -1.34262688       1.44374035       1.49636088       0.00000000
Si      -0.27591025      -2.47837756       2.63378160       0.00000000
Si      -2.69182706       2.70541714      -0.02461994       0.00000000
Si      -2.72227307      -2.71169923      -0.01194741       0.00000000
Si       2.72486577       2.71256845      -0.00856346       0.00000000
Si      -2.70565727      -0.00829161      -2.73902928       0.00000000
Si       0.00994993       2.70961996      -2.73868398       0.00000000
