10
Lattice="16.28999089631971 0.0 0.0 0.0 16.28999089631971 0.0 0.0 0.0 34.5300574570662" Properties=species:S:1:pos:R:3:initial_magmoms:R:1 pbc="T T T"
Si       1.77728950       1.13621121      -0.99315407       0.00000000
Si       0.40694375      -2.29860045       0.01602196       0.00000000
Si      -2.22166834       0.66847644      -0.39208902       0.00000000
Si       0.21503940       0.55227987       2.32646392       0.00000000
Si       1.07980057       3.20337963       0.06660852       0.00000000
Si      -3.26937598      -1.13780763       0.67430334       0.00000000
Si       1.67054113      -2.46980835       2.03095552       0.00000000
Si       0.36516316       2.87445195       2.32729264       0.00000000
Si       2.23397965      -0.48060387       3.06879151       0.00000000
Si       3.85025716      -0.04634505      -0.46860767       0.00000000
