10
Lattice="16.28999089631971 0.0 0.0 0.0 16.28999089631971 0.0 0.0 0.0 34.5300574570662" Properties=species:S:1:pos:R:3:initial_magmoms:R:1 pbc="T T T"
Si      -1.11906828       0.68549949      -1.98333855       0.00000000
Si       0.81261851       1.58680890       1.60150983       0.00000000
Si      -1.68139908      -1.06394877       1.49419381       0.00000000
Si       2.35463479      -0.50987700      -0.97706305       0.00000000
Si       2.64619321      -2.61469161       0.31722782       0.00000000
Si       2.23130320       0.28593837       3.04270201       0.00000000
Si       1.70435428       3.36129489       0.37707435       0.00000000
Si       0.61336900       1.08269856      -3.62507105       0.00000000
Si      -0.48020234      -2.44222938       3.03707015       0.00000000
Si      -2.25272196      -1.27843920      -3.02832226       0.00000000
