10
Lattice="16.28999089631971 0.0 0.0 0.0 16.28999089631971 0.0 0.0 0.0 34.5300574570662" Properties=species:S:1:pos:R:3:initial_magmoms:R:1 pbc="T T T"
Si      -1.39859424       1.29738447       1.32674914       0.00000000
Si      -1.37339361      -1.32343218      -1.37039516       0.00000000
Si       1.33913574       1.39406562      -1.36245324       0.00000000
Si       1.43368290      -1.38214134       1.48689964       0.00000000
Si      -0.01337409       2.55395990       2.72987881       0.00000000
Si      -2.70979263      -2.67068034       0.01101509       0.00000000
Si       2.70839169      -2.67731037      -0.00887423       0.00000000
Si      -0.01866834      -2.67745698      -2.72518272       0.00000000
Si       2.69715159       0.03671766      -2.72411229       0.00000000
Si       2.68884369       2.75581907       0.00970295       0.00000000
