10
Lattice="16.28999089631971 0.0 0.0 0.0 16.28999089631971 0.0 0.0 0.0 34.5300574570662" Properties=species:S:1:pos:R:3:initial_magmoms:R:1 pbc="T T T"
Si      -0.51768317       2.24596746      -0.14026117       0.00000000
Si      -1.11500815      -0.35665326       2.05305477       0.00000000
Si       2.36193597       0.06199974       0.23829206       0.00000000
Si      -1.20409653      -2.27807505      -2.33851492       0.00000000
Si       0.76462002      -0.18226881       3.41322903       0.00000000
Si       2.88057699      -0.71097705      -2.02128710       0.00000000
Si       2.52493371      -1.25100684       2.22715542       0.00000000
Si      -2.90438387       2.22505110       0.14651112       0.00000000
Si      -1.38081045      -2.75059908       2.09687344       0.00000000
Si      -0.84086862       2.76486912      -2.38927413       0.00000000
