10
Lattice="10.86 0.0 0.0 0.0 10.86 0.0 0.0 0.0 10.86" Properties=species:S:1:pos:R:3:initial_magmoms:R:1 pbc="T T T"
Si       1.35750000       1.35750000       1.35750000       0.00000000
Si      -1.35750000      -1.35750000       1.35750000       0.00000000
Si       1.35750000      -1.35750000      -1.35750000       0.00000000
Si      -1.35750000       1.35750000      -1.35750000       0.00000000
Si      -0.42663510      -2.87245914      -2.22821136       0.00000000
Si      -0.20730654       2.75052306       2.43936234       0.00000000
Si      -2.50458750       2.72411154       0.38649654       0.00000000
Si       2.63321334       2.65743114       0.28003596       0.00000000
Si       0.05426742      -2.67504606       2.65190340       0.00000000
Si      -0.13567398       2.59775544      -2.74245408       0.00000000
