10
Lattice="10.86 0.0 0.0 0.0 10.86 0.0 0.0 0.0 10.86" Properties=species:S:1:pos:R:3:initial_magmoms:R:1 pbc="T T T"
Si      -1.02834426      -0.72027864      -1.76095986       0.00000000
Si       1.02142644       1.60265364      -1.64281392       0.00000000
Si      -1.55005866       1.90233534       0.61326420       0.00000000
Si       0.41530812      -1.70701824       2.00290980       0.00000000
Si      -2.62443846       0.40261278       1.94289744       0.00000000
Si      -2.62443846      -2.31238722      -0.77210256       0.00000000
Si       0.09056154       3.11761278       1.94289744       0.00000000
Si      -1.55544522      -0.68888238       3.47556924       0.00000000
Si      -1.05652596      -3.66077568       0.97189398       0.00000000
Si       1.50232896       1.80006672       3.23730084       0.00000000
