10
Lattice="10.86 0.0 0.0 0.0 10.86 0.0 0.0 0.0 10.86" Properties=species:S:1:pos:R:3:initial_magmoms:R:1 pbc="T T T"
Si       1.30046328       1.40072280       1.36780614       0.00000000
Si      -1.41453672      -1.31427720       1.36780614       0.00000000
Si      -1.41453672       1.40072280      -1.34719386       0.00000000
Si       0.94855584      -1.55175282      -1.61704314       0.00000000
Si       2.50876860      -2.63613468      -0.04466718       0.00000000
Si       2.65796328       0.04322280       2.72530614       0.00000000
Si      -0.05703672      -2.67177720       2.72530614       0.00000000
Si      -2.77203672      -2.67177720       0.01030614       0.00000000
Si      -0.02779074       2.72236308      -2.75060994       0.00000000
Si      -2.77203672       0.04322280      -2.70469386       0.00000000
