10
Lattice="10.86 0.0 0.0 0.0 10.86 0.0 0.0 0.0 10.86" Properties=species:S:1:pos:R:3:initial_magmoms:R:1 pbc="T T T"
Si      -1.29421878       1.44577008       1.18309926       0.00000000
Si       1.27767900       1.43123940      -1.41424350       0.00000000
Si       0.04301646      -1.88424258       1.55172024       0.00000000
Si      -1.03049454      -1.67466630      -1.76944152       0.00000000
Si      -2.43255312      -0.11118468       2.43086982       0.00000000
Si       0.28244688       2.60381532       2.43086982       0.00000000
Si      -2.43255312       2.60381532      -0.28413018       0.00000000
Si      -2.43255312      -2.82618468      -0.28413018       0.00000000
Si      -2.43255312      -0.11118468      -2.99913018       0.00000000
Si       2.99744688       2.60381532      -0.28413018       0.00000000
