10
Lattice="10.86 0.0 0.0 0.0 10.86 0.0 0.0 0.0 10.86" Properties=species:S:1:pos:R:3:initial_magmoms:R:1 pbc="T T T"
Si      -1.13833434       1.15804524      -1.46722944       0.00000000
Si       1.29421878      -1.44577008      -1.18309926       0.00000000
Si      -1.13833434      -1.55695476       1.24777056       0.00000000
Si       1.57666566       1.15804524       1.24777056       0.00000000
Si      -2.49583434       2.51554524      -0.10972944       0.00000000
Si       1.33723524      -3.33001266       0.36862098       0.00000000
Si      -2.49583434      -0.19945476       2.60527056       0.00000000
Si       0.21916566       2.51554524       2.60527056       0.00000000
Si       2.57189778      -0.01453068      -2.59734276       0.00000000
Si       2.78593752      -0.45304662       2.50574952       0.00000000
