10
Lattice="16.28999089631971 0.0 0.0 0.0 16.28999089631971 0.0 0.0 0.0 34.33025523377368" Properties=species:S:1:pos:R:3:initial_magmoms:R:1 pbc="T T T"
Si       1.35708732       1.35670125      -1.35638914       0.00000000
Si      -1.35778779      -1.35798895      -1.35608017       0.00000000
Si       1.35734796      -1.35943757       1.36023413       0.00000000
Si      -1.36063854       1.35784155       1.35892958       0.00000000
Si       2.71352304      -0.00092527      -2.71329324       0.00000000
Si      -0.00026064       2.71421211      -2.71422016       0.00000000
Si      -2.71348720       2.71505919       0.00020598       0.00000000
Si       0.00073305      -2.71544756      -2.71322458       0.00000000
Si      -2.71585740      -0.00083731      -2.71397984       0.00000000
Si      -2.71540454      -2.71551272       0.00185383       0.00000000
