10
Lattice="16.28999089631971 0.0 0.0 0.0 16.28999089631971 0.0 0.0 0.0 34.33025523377368" Properties=species:S:1:pos:R:3:initial_magmoms:R:1 pbc="T T T"
Si      -1.54627516       1.76156802      -0.15390262       0.00000000
Si       0.96204830      -0.00584811       2.15364111       0.00000000
Si      -1.15593418      -2.09720718      -0.05111778       0.00000000
Si       1.54630707       0.76615128      -1.67600400       0.00000000
Si      -0.12785532       3.64872284      -0.24463754       0.00000000
Si       2.27458410      -1.99073574       2.07814883       0.00000000
Si      -3.29376862       1.38790800       1.44077296       0.00000000
Si       2.34977874       1.85117931       2.45289811       0.00000000
Si       0.95755715       3.08192043      -2.17698569       0.00000000
Si      -2.59134382       1.94297346      -2.23905483       0.00000000
