10
Lattice="16.28999089631971 0.0 0.0 0.0 16.28999089631971 0.0 0.0 0.0 34.33025523377368" Properties=species:S:1:pos:R:3:initial_magmoms:R:1 pbc="T T T"
Si      -0.42564029      -2.01951691       1.24769949       0.00000000
Si       1.33747269      -1.34078103      -1.56127222       0.00000000
Si      -1.36831001       1.33926606      -1.56391565       0.00000000
Si       1.41326192       1.41442812       1.46758490       0.00000000
Si       1.50556595      -1.61050271       2.91618516       0.00000000
Si      -2.71982615       2.70501966      -0.22324977       0.00000000
Si       2.86494690      -2.56201399      -0.20838477       0.00000000
Si       2.70514200       2.88785862       0.03075993       0.00000000
Si       2.68699494      -0.00211770      -2.93606239       0.00000000
Si      -0.02246179       2.71016730      -2.93451753       0.00000000
