10
Lattice="16.28999089631971 0.0 0.0 0.0 16.28999089631971 0.0 0.0 0.0 34.33025523377368" Properties=species:S:1:pos:R:3:initial_magmoms:R:1 pbc="T T T"
Si       1.57864761      -1.47629754       0.79285769       0.00000000
Si      -1.70093664      -1.45398024      -0.62934259       0.00000000
Si      -1.20135492       0.92856258       1.78599820       0.00000000
Si       0.43202709       1.08551673      -2.04055718       0.00000000
Si       0.11800476      -2.71995270       2.27970187       0.00000000
Si      -2.07656775      -2.46875764       1.49031154       0.00000000
Si      -0.84126447      -2.16807194      -2.72314603       0.00000000
Si      -2.30762511       2.74564692       0.73827255       0.00000000
Si      -3.48664644      -0.05036868      -1.23719443       0.00000000
Si       0.32760819       1.26701991       3.53001047       0.00000000
