10
Lattice="16.28999089631971 0.0 0.0 0.0 16.28999089631971 0.0 0.0 0.0 34.33025523377368" Properties=species:S:1:pos:R:3:initial_magmoms:R:1 pbc="T T T"
Si       0.98481195       0.76717755      -1.97086672       0.00000000
Si       1.77111396      -0.19344375       1.54839837       0.00000000
Si      -1.15515648      -2.05092729      -0.36929076       0.00000000
Si      -1.58358348       1.51000155       1.08044240       0.00000000
Si      -3.34381898      -1.15719273      -0.63061281       0.00000000
Si      -1.37772675      -2.94283737       1.77181979       0.00000000
Si      -0.85107105       0.61263432      -3.59880834       0.00000000
Si       0.78856632      -0.85426389       3.60272199       0.00000000
Si       3.02590008      -0.45509373      -2.26246808       0.00000000
Si       2.74484871       1.93666923       1.93107794       0.00000000
