10
Lattice="16.28999089631971 0.0 0.0 0.0 16.28999089631971 0.0 0.0 0.0 34.33025523377368" Properties=species:S:1:pos:R:3:initial_magmoms:R:1 pbc="T T T"
Si       1.34283357       1.34807895       1.39042074       0.00000000
Si      -1.36700793      -1.37052657       1.38856691       0.00000000
Si      -1.22357448       1.54748484      -1.33953641       0.00000000
Si       1.69746687      -1.11166218      -1.48702957       0.00000000
Si      -2.52379341       0.28450485      -2.75167933       0.00000000
Si       2.70399339       2.70510111       0.03816153       0.00000000
Si       2.71104696      -2.69905752       0.02436763       0.00000000
Si       2.69933445      -0.00151497       2.74948765       0.00000000
Si      -2.73066012      -2.72552877       0.02998749       0.00000000
Si      -0.01402569       2.71243161       2.74928167       0.00000000
