10
Lattice="16.28999089631971 0.0 0.0 0.0 16.28999089631971 0.0 0.0 0.0 34.33025523377368" Properties=species:S:1:pos:R:3:initial_magmoms:R:1 pbc="T T T"
Si      -1.35524655      -1.35641943       1.35604584       0.00000000
Si      -1.35669636       1.35739683      -1.35721307       0.00000000
Si       1.35832536      -1.35832536      -1.35793400       0.00000000
Si       1.35930276       1.35879777       1.35735039       0.00000000
Si       0.00050499      -2.71370223      -2.71360221       0.00000000
Si      -0.00294849       2.71453302       2.71346489       0.00000000
Si       2.71202436       0.00043983       2.71669194       0.00000000
Si      -2.71443528       2.71435383      -0.00003433       0.00000000
Si      -2.71249677      -0.00118917       2.71655461       0.00000000
Si       2.71474479       2.71484253      -0.00030897       0.00000000
