10
Lattice="16.28999089631971 0.0 0.0 0.0 16.28999089631971 0.0 0.0 0.0 34.33025523377368" Properties=species:S:1:pos:R:3:initial_magmoms:R:1 pbc="T T T"
Si       1.35544203       1.35604476      -1.35765936       0.00000000
Si       1.35272160      -1.35835794       1.35934155       0.00000000
Si      -1.36225125       1.35573525       1.35611450       0.00000000
Si      -1.35930276      -1.35879777      -1.35735039       0.00000000
Si      -2.71476108       2.71321353      -0.00078960       0.00000000
Si      -0.00166158       2.71344159      -2.71456346       0.00000000
Si       2.71366965      -0.00190593      -2.71452913       0.00000000
Si       2.71432125       2.71497285      -0.00096125       0.00000000
Si      -2.71454931      -2.71521720      -0.00130455       0.00000000
Si      -2.71599912      -0.00140094      -2.71456346       0.00000000
