10
Lattice="16.28999089631971 0.0 0.0 0.0 16.28999089631971 0.0 0.0 0.0 34.33025523377368" Properties=species:S:1:pos:R:3:initial_magmoms:R:1 pbc="T T T"
Si      -0.73754604       1.38847815      -1.71819590       0.00000000
Si       1.82941587      -1.19987253      -0.94449451       0.00000000
Si      -1.48737474      -1.75855437       0.74379973       0.00000000
Si       0.13344768       1.46302119       1.93533489       0.00000000
Si       2.56266135      -2.06676117       1.11041273       0.00000000
Si       0.66494151      -2.25634419      -2.66505920       0.00000000
Si       1.23364170       2.78855478      -1.87745405       0.00000000
Si       1.02884382      -1.80978642       2.99627769       0.00000000
Si      -1.80742437      -2.02056273      -2.58105302       0.00000000
Si      -0.93791304       0.01420488       3.68820437       0.00000000
