10
Lattice="16.28999089631971 0.0 0.0 0.0 16.28999089631971 0.0 0.0 0.0 34.33025523377368" Properties=species:S:1:pos:R:3:initial_magmoms:R:1 pbc="T T T"
Si       1.78134408       0.94822461       1.12486577       0.00000000
Si       1.23188238      -0.82453464      -1.81953887       0.00000000
Si      -1.50322491       1.81986993      -0.26022348       0.00000000
Si      -1.20202281      -1.72691919       1.12829880       0.00000000
Si       0.31954464       1.96623558       2.82469498       0.00000000
Si      -0.57542796      -1.14157062      -3.28571623       0.00000000
Si      -3.30004449       0.97901271       1.36665389       0.00000000
Si      -0.67135977       3.49863588       1.21611564       0.00000000
Si       2.85270480       2.39704092      -0.62800371       0.00000000
Si      -2.40445287      -0.66738501       2.86211498       0.00000000
