10
Lattice="16.28999089631971 0.0 0.0 0.0 16.28999089631971 0.0 0.0 0.0 34.33025523377368" Properties=species:S:1:pos:R:3:initial_magmoms:R:1 pbc="T T T"
Si      -1.78134408      -0.94822461      -1.12486577       0.00000000
Si      -1.46179944       1.01801097       1.69982921       0.00000000
Si       1.26861633      -1.48506156       1.52996301       0.00000000
Si       1.07136072       1.44881631      -1.75286948       0.00000000
Si       1.96675686      -1.82399130      -0.69192668       0.00000000
Si      -0.54946170      -1.77275925      -2.94440465       0.00000000
Si      -2.45270385       2.55041127       0.09124987       0.00000000
Si      -0.50570676       3.35342682      -1.27286358       0.00000000
Si      -3.28456899       0.87164532      -1.38508925       0.00000000
Si       0.93791304      -0.01420488      -3.68820437       0.00000000
