10
Lattice="16.28999089631971 0.0 0.0 0.0 16.28999089631971 0.0 0.0 0.0 34.33025523377368" Properties=species:S:1:pos:R:3:initial_magmoms:R:1 pbc="T T T"
Si      -1.35474156      -1.35619137      -1.35738472       0.00000000
Si       1.35710361      -1.35739683       1.35690410       0.00000000
Si      -1.35721764       1.35734796       1.35707575       0.00000000
Si       1.35985662       1.35842310      -1.35731606       0.00000000
Si      -2.71309950      -0.00022806       2.71377386       0.00000000
Si       2.71453302      -0.00094482      -2.71308726       0.00000000
Si       0.00166158      -2.71344159       2.71456346       0.00000000
Si       0.00138465       2.71477737       2.71373953       0.00000000
Si      -2.71384884       2.71503801       0.00030897       0.00000000
Si      -2.71433754      -2.71484253       0.00000000       0.00000000
