10
Lattice="16.28999089631971 0.0 0.0 0.0 16.28999089631971 0.0 0.0 0.0 34.33025523377368" Properties=species:S:1:pos:R:3:initial_magmoms:R:1 pbc="T T T"
Si      -2.06609328       0.21652668       1.05850535       0.00000000
Si       0.65173032       2.23010819      -0.46623946       0.00000000
Si       1.76777451      -1.28827836       0.95623546       0.00000000
Si      -0.53947593      -0.91678491      -2.37936266       0.00000000
Si       2.15915805       1.67191016      -2.25433180       0.00000000
Si      -2.93469237       2.22271253       0.08764519       0.00000000
Si       3.41278758      -1.68785577      -0.72055813       0.00000000
Si      -3.45382372      -1.64050074       0.75924835       0.00000000
Si      -1.90014705       0.26611344       3.40542590       0.00000000
Si       0.68649318       0.49850855      -3.81690857       0.00000000
