10
Lattice="16.28999089631971 0.0 0.0 0.0 16.28999089631971 0.0 0.0 0.0 34.33025523377368" Properties=species:S:1:pos:R:3:initial_magmoms:R:1 pbc="T T T"
Si       1.52389692       0.64313964       1.63484200       0.00000000
Si      -1.78652430       1.48273602      -0.36345462       0.00000000
Si       1.30000716      -0.04017114      -2.00523133       0.00000000
Si      -1.24608726      -1.91896200       0.72653160       0.00000000
Si       0.12031794      -3.42981063      -0.40571518       0.00000000
Si      -0.01526373      -1.16688528      -3.60769988       0.00000000
Si      -3.36106683      -1.82830815      -0.29558366       0.00000000
Si      -2.64619647       2.19682772       1.73034882       0.00000000
Si       3.51821646       1.44154187       0.64568380       0.00000000
Si       2.41875549      -3.02332626      -0.24879150       0.00000000
