10
Lattice="16.28999089631971 0.0 0.0 0.0 16.28999089631971 0.0 0.0 0.0 34.33025523377368" Properties=species:S:1:pos:R:3:initial_magmoms:R:1 pbc="T T T"
Si      -1.31527089      -1.12671414      -1.60246855       0.00000000
Si       0.51823377       2.17646522      -0.79042024       0.00000000
Si      -1.30000716       0.04017114       2.00523133       0.00000000
Si       1.89253962      -1.50555438       0.06320204       0.00000000
Si       0.32974218      -1.52629155      -3.27926214       0.00000000
Si       1.11874833      -2.98315512       1.75643983       0.00000000
Si       1.68332715       3.11851592       0.98424897       0.00000000
Si       0.22388976       0.68331078       3.64007333       0.00000000
Si       2.21820930       1.48171301       2.65091513       0.00000000
Si      -1.93269447      -3.18588417      -0.58327136       0.00000000
