10
Lattice="16.28999089631971 0.0 0.0 0.0 16.28999089631971 0.0 0.0 0.0 34.33025523377368" Properties=species:S:1:pos:R:3:initial_magmoms:R:1 pbc="T T T"
Si       0.86799636      -1.33936380       1.67386320       0.00000000
Si      -1.12703994      -1.22549670      -1.69440502       0.00000000
Si       2.20257090       0.15752430      -0.92650545       0.00000000
Si      -1.76834466       1.44192564       1.01744634       0.00000000
Si       1.86562854       0.37458855       2.79697126       0.00000000
Si      -2.12390649       2.72588782      -1.03498911       0.00000000
Si      -3.07403703      -2.02851225      -0.33029157       0.00000000
Si      -0.84670533      -2.31866973       2.81716776       0.00000000
Si       3.38359590       1.10947932       1.16335001       0.00000000
Si       2.60912043      -2.40754797      -1.25600742       0.00000000
