10
Lattice="16.28999089631971 0.0 0.0 0.0 16.28999089631971 0.0 0.0 0.0 34.33025523377368" Properties=species:S:1:pos:R:3:initial_magmoms:R:1 pbc="T T T"
Si      -1.35617508      -1.35745181       1.35656079       0.00000000
Si       1.35764118      -1.35745181      -1.35700709       0.00000000
Si      -1.35861858       1.35733111      -1.35693843       0.00000000
Si       1.35843939       1.35791755       1.35741905       0.00000000
Si      -2.71492398       0.00106121      -2.71243498       0.00000000
Si       0.00229689      -2.71380608      -2.71449480       0.00000000
Si      -0.00228060      -2.71408301       2.71494109       0.00000000
Si       0.00182448       2.71191140      -2.71724122       0.00000000
Si      -2.71477737      -2.71488122      -0.00010299       0.00000000
Si      -0.00252495       2.71332863       2.71638296       0.00000000
