10
Lattice="16.28999089631971 0.0 0.0 0.0 16.28999089631971 0.0 0.0 0.0 34.33025523377368" Properties=species:S:1:pos:R:3:initial_magmoms:R:1 pbc="T T T"
Si       1.27133676      -1.40246607      -1.46628035       0.00000000
Si      -1.32967125      -1.40191221       1.42443175       0.00000000
Si      -1.43101134       1.30970883      -1.44901222       0.00000000
Si       1.05063984       1.74186950       1.57761343       0.00000000
Si       2.34113364       0.27538669       2.86650925       0.00000000
Si       2.58126453       2.72360264       0.03384965       0.00000000
Si       2.48062491      -2.84033550      -0.05667928       0.00000000
Si      -2.55474441       0.11128416       2.77666693       0.00000000
Si      -2.71246419      -2.72143479      -0.04771908       0.00000000
Si      -2.60964171       2.83911503      -0.02049517       0.00000000
