10
Lattice="16.28999089631971 0.0 0.0 0.0 16.28999089631971 0.0 0.0 0.0 34.33025523377368" Properties=species:S:1:pos:R:3:initial_magmoms:R:1 pbc="T T T"
Si      -1.12117554      -1.88487192       1.02379744       0.00000000
Si      -1.22215725       1.06399764      -1.84861662       0.00000000
Si       1.01154384      -1.42768818      -1.73783282       0.00000000
Si       1.46039850       0.55091151       2.11436727       0.00000000
Si      -0.52637877       2.80991097      -0.33465152       0.00000000
Si       0.89278974      -3.12159438       1.77566478       0.00000000
Si       2.30203764      -2.89417099      -0.44893700       0.00000000
Si      -0.23900688       1.63721016       3.44514603       0.00000000
Si      -2.59384041      -3.05827352      -0.53877933       0.00000000
Si       1.87773201      -1.54812015       3.25512796       0.00000000
