10
Lattice="16.28999089631971 0.0 0.0 0.0 16.28999089631971 0.0 0.0 0.0 34.33025523377368" Properties=species:S:1:pos:R:3:initial_magmoms:R:1 pbc="T T T"
Si       0.98494227       1.57347423       1.47946318       0.00000000
Si      -0.76033575      -2.12304346       0.78190633       0.00000000
Si      -2.01396528       1.23672246      -0.75186734       0.00000000
Si       1.40924790       0.22742339      -2.22460178       0.00000000
Si      -0.57184416       1.57971330       3.27074823       0.00000000
Si      -0.89278974       3.12159438      -1.77566478       0.00000000
Si       0.56760876       3.67250589       0.33870249       0.00000000
Si       1.00460430      -3.11318224       2.00196995       0.00000000
Si      -2.40534882      -1.72346605       2.45869992       0.00000000
Si      -1.55888784      -3.02811586      -1.82424212       0.00000000
