10
Lattice="16.28999089631971 0.0 0.0 0.0 16.28999089631971 0.0 0.0 0.0 34.33025523377368" Properties=species:S:1:pos:R:3:initial_magmoms:R:1 pbc="T T T"
Si      -1.16509338      -0.94205070      -1.77466921       0.00000000
Si      -1.28922318       1.86152346       0.64173582       0.00000000
Si       2.00129166       1.23069321      -0.27848719       0.00000000
Si       0.53488215      -1.63680291       1.66666616       0.00000000
Si       1.82674431       1.73299536       2.03194028       0.00000000
Si       1.52661735      -0.24239520       3.30277838       0.00000000
Si      -1.68332715      -3.11851592      -0.98424897       0.00000000
Si       0.39169305      -0.94828977      -3.56595426       0.00000000
Si      -1.37780820       3.29448960      -1.31323599       0.00000000
Si      -0.20134440       2.96122878       2.38976473       0.00000000
