10
Lattice="16.28999089631971 0.0 0.0 0.0 16.28999089631971 0.0 0.0 0.0 34.33025523377368" Properties=species:S:1:pos:R:3:initial_magmoms:R:1 pbc="T T T"
Si      -0.83807163       2.22694074       0.20742352       0.00000000
Si       1.80916740       0.20344581      -1.63336580       0.00000000
Si      -1.99570419      -1.04397723      -1.18508107       0.00000000
Si       1.03040766       0.27657162       2.61572321       0.00000000
Si      -0.24136893       2.27709765       2.57807491       0.00000000
Si      -0.60229017       2.81269656      -2.15240522       0.00000000
Si       1.56893877       2.23976097      -2.76502896       0.00000000
Si      -2.17370502      -0.08285094      -3.27016462       0.00000000
Si       3.91644180       0.34731909      -0.39812819       0.00000000
Si       1.63667259      -1.29853129      -3.45311065       0.00000000
