10
Lattice="16.28999089631971 0.0 0.0 0.0 16.28999089631971 0.0 0.0 0.0 34.33025523377368" Properties=species:S:1:pos:R:3:initial_magmoms:R:1 pbc="T T T"
Si      -1.35742941       1.35780408      -1.35676678       0.00000000
Si       1.35773892      -1.35755973      -1.35711008       0.00000000
Si       1.35622395       1.35780408       1.35838030       0.00000000
Si      -1.35695700      -1.35830907       1.35882659       0.00000000
Si       0.00011403      -2.71414206      -2.71394551       0.00000000
Si      -2.71414206       0.00301365      -2.71397984       0.00000000
Si       0.00001629      -2.71554300       2.71305293       0.00000000
Si      -2.71508688      -2.71467963       0.00020598       0.00000000
Si       2.71511946      -2.71508688       0.00041196       0.00000000
Si       2.71494027       2.71547784       0.00030897       0.00000000
