10
Lattice="16.28999089631971 0.0 0.0 0.0 16.28999089631971 0.0 0.0 0.0 34.33025523377368" Properties=species:S:1:pos:R:3:initial_magmoms:R:1 pbc="T T T"
Si      -1.35829278       1.35496962      -1.35597718       0.00000000
Si       1.35733167       1.35589815       1.35717874       0.00000000
Si      -1.35749457      -1.35943308       1.35714441       0.00000000
Si       1.35399222      -1.36042677      -1.36009681       0.00000000
Si      -2.70954828      -0.00760743      -2.71139477       0.00000000
Si      -0.00483813      -2.68944642      -2.73290956       0.00000000
Si       0.02564046       2.70132183      -2.72125443       0.00000000
Si       0.00001629       2.71324611       2.71370520       0.00000000
Si      -2.71296918       2.71433754      -0.00020598       0.00000000
Si      -2.71420722      -2.71422351      -0.00006866       0.00000000
