10
Lattice="16.28999089631971 0.0 0.0 0.0 16.28999089631971 0.0 0.0 0.0 34.33025523377368" Properties=species:S:1:pos:R:3:initial_magmoms:R:1 pbc="T T T"
Si      -1.10149722       0.83228868      -1.90018069       0.00000000
Si       1.66575024      -1.65973923       0.18888517       0.00000000
Si       1.15486326       1.96428078       0.65234387       0.00000000
Si      -2.55801870      -1.31487993       0.44969226       0.00000000
Si      -2.76824115       1.91094732      -0.05784651       0.00000000
Si      -1.15429311      -2.98352979       1.68238943       0.00000000
Si       0.41101299      -3.68914743       0.02828815       0.00000000
Si       2.31666606      -1.66094469       2.51143123       0.00000000
Si       2.29780224      -2.38439988      -2.03067006       0.00000000
Si       0.33938586       2.05076439      -3.38139471       0.00000000
