10
Lattice="16.28999089631971 0.0 0.0 0.0 16.28999089631971 0.0 0.0 0.0 34.33025523377368" Properties=species:S:1:pos:R:3:initial_magmoms:R:1 pbc="T T T"
Si      -1.38111507       1.29179700      -1.38783567       0.00000000
Si       1.32421410      -1.43923779      -1.38656545       0.00000000
Si       1.78854426       0.84216042       1.37255870       0.00000000
Si      -1.67158206      -0.90927522       1.49384756       0.00000000
Si      -0.09824499      -0.46258713       3.43151691       0.00000000
Si      -2.56052736      -2.57502546      -0.02578204       0.00000000
Si      -2.76596055       2.61560385       0.01881299       0.00000000
Si      -0.02169828       2.64241719      -2.75036994       0.00000000
Si       3.55048695      -0.83891871       1.11992221       0.00000000
Si       2.69395875      -0.07612317      -2.74724588       0.00000000
