10
Lattice="16.28999089631971 0.0 0.0 0.0 16.28999089631971 0.0 0.0 0.0 34.33025523377368" Properties=species:S:1:pos:R:3:initial_magmoms:R:1 pbc="T T T"
Si      -0.69814053       0.33892974       2.22188969       0.00000000
Si      -0.52942500      -2.31190938       0.17141106       0.00000000
Si       1.53381753      -0.25697475      -1.88586496       0.00000000
Si      -1.96675686       1.82399130       0.69192668       0.00000000
Si      -1.52912601      -2.10580830      -1.91463373       0.00000000
Si      -2.51621856       0.05123205      -2.25247797       0.00000000
Si       1.66488687      -3.12142464       0.21755095       0.00000000
Si      -0.89539614       3.27280761      -1.06094280       0.00000000
Si      -1.02884382       1.80978642      -2.99627769       0.00000000
Si       1.90066833      -2.53566882      -2.14227778       0.00000000
