10
Lattice="16.28999089631971 0.0 0.0 0.0 16.28999089631971 0.0 0.0 0.0 34.33025523377368" Properties=species:S:1:pos:R:3:initial_magmoms:R:1 pbc="T T T"
Si      -1.33169121      -1.36637262      -1.36266815       0.00000000
Si       1.35658233      -1.35273789       1.35686977       0.00000000
Si      -1.35778779       1.36050294       1.35789967       0.00000000
Si       1.35169533       1.37708950      -1.36703496       0.00000000
Si      -2.62190808       0.07322355      -2.66138586       0.00000000
Si      -0.21111840       2.57302083      -2.80165937       0.00000000
Si       2.71467963      -2.71223613      -0.00171651       0.00000000
Si       0.00000000      -2.71179630       2.71576502       0.00000000
Si      -2.71562445      -2.71272483       0.00260910       0.00000000
Si       2.71368594       2.71689574      -0.00243745       0.00000000
