10
Lattice="16.28999089631971 0.0 0.0 0.0 16.28999089631971 0.0 0.0 0.0 34.33025523377368" Properties=species:S:1:pos:R:3:initial_magmoms:R:1 pbc="T T T"
Si       1.20928815      -1.43786943       1.40960107       0.00000000
Si       1.36085031       1.35348723      -1.36153868       0.00000000
Si      -1.35896067      -1.35928647      -1.36411345       0.00000000
Si      -1.27133676       1.40246607       1.46628035       0.00000000
Si       2.36815875       0.11763009       2.73385707       0.00000000
Si      -2.70234810       2.71217490       0.01726813       0.00000000
Si       2.70317889      -2.71324611       0.00676306       0.00000000
Si      -2.70570384      -2.71213839      -0.00233446       0.00000000
Si       2.70831024       2.72192609       0.02056383       0.00000000
Si       0.00175932       2.71271410      -2.72163550       0.00000000
