10
Lattice="16.28999089631971 0.0 0.0 0.0 16.28999089631971 0.0 0.0 0.0 34.33025523377368" Properties=species:S:1:pos:R:3:initial_magmoms:R:1 pbc="T T T"
Si      -1.35537361      -1.35698958       1.35604584       0.00000000
Si      -1.35796046       1.35653346      -1.35769369       0.00000000
Si       1.35785295      -1.35783666      -1.35838030       0.00000000
Si       1.35980775       1.35879777       1.35556522       0.00000000
Si      -2.71409710       0.00074934      -2.71174838       0.00000000
Si       2.70995553       0.00029322       2.71741287       0.00000000
Si      -2.71198168      -0.00192222       2.71631430       0.00000000
Si      -2.71429270       2.71448415      -0.00030897       0.00000000
Si      -0.00252495      -2.71420722       2.71476944       0.00000000
Si       2.71555929       0.00151497      -2.71408284       0.00000000
