10
Lattice="16.28999089631971 0.0 0.0 0.0 16.28999089631971 0.0 0.0 0.0 34.33025523377368" Properties=species:S:1:pos:R:3:initial_magmoms:R:1 pbc="T T T"
Si      -1.05849162       1.51482339       1.50013000       0.00000000
Si      -2.02256640      -0.78696990      -1.06828742       0.00000000
Si       0.84012417       0.80738127      -2.21168815       0.00000000
Si       1.64527371      -1.22668587       1.48222333       0.00000000
Si      -3.29434299       1.21355613      -1.10593572       0.00000000
Si      -2.41373817       0.13282866       2.87246899       0.00000000
Si      -2.62493802      -2.72786638       0.07602783       0.00000000
Si      -2.28503088       3.08833965       0.05930555       0.00000000
Si       0.29986632      -2.58399148       2.87524974       0.00000000
Si       3.11566191       1.43671284      -1.84304966       0.00000000
