10
Lattice="16.28999089631971 0.0 0.0 0.0 16.28999089631971 0.0 0.0 0.0 34.33025523377368" Properties=species:S:1:pos:R:3:initial_magmoms:R:1 pbc="T T T"
Si      -1.35715248      -1.35682287       1.35738472       0.00000000
Si       1.35790182      -1.35763737      -1.35759070       0.00000000
Si      -1.35782037       1.35777272      -1.35762503       0.00000000
Si       1.35840681       1.35849274       1.35693843       0.00000000
Si       2.71086777       0.00226812       2.71648595       0.00000000
Si      -0.00083079      -2.71294908      -2.71600533       0.00000000
Si       2.71456691      -2.71452921      -0.00006866       0.00000000
Si       2.71403988       0.00135228      -2.71507841       0.00000000
Si       0.00148239      -2.71296537       2.71617698       0.00000000
Si      -2.71472850      -2.71465953      -0.00058361       0.00000000
