10
Lattice="16.28999089631971 0.0 0.0 0.0 16.28999089631971 0.0 0.0 0.0 34.33025523377368" Properties=species:S:1:pos:R:3:initial_magmoms:R:1 pbc="T T T"
Si       1.35048987       1.33608951      -1.39301955       0.00000000
Si      -1.36199061      -1.37841093      -1.39566298       0.00000000
Si       1.54649115      -1.20772431       1.41389235       0.00000000
Si      -1.34384355       1.51156539       1.57115934       0.00000000
Si       0.22353138      -2.58440524       2.80395949       0.00000000
Si      -2.71856642       2.69107542      -0.01610090       0.00000000
Si       2.70314631       2.71275741      -0.01033341       0.00000000
Si      -2.71151285      -2.71707426      -0.02087281       0.00000000
Si       0.00034209       2.69459406      -2.75486720       0.00000000
Si       2.72512152      -2.73713051      -0.01462470       0.00000000
