10
Lattice="16.28999089631971 0.0 0.0 0.0 16.28999089631971 0.0 0.0 0.0 34.33025523377368" Properties=species:S:1:pos:R:3:initial_magmoms:R:1 pbc="T T T"
Si       0.39732131      -2.27213313      -0.14717389       0.00000000
Si       1.87789558       0.97288115      -1.02444972       0.00000000
Si      -1.94527035      -0.04428274      -1.34461386       0.00000000
Si      -0.36496116       0.72423548       2.23040360       0.00000000
Si       0.86180520       2.71341227       1.96170054       0.00000000
Si      -1.15020432      -2.99428512       1.52014455       0.00000000
Si       2.74132097       2.57664143       0.54097646       0.00000000
Si      -1.72419876      -1.84567722      -2.91711208       0.00000000
Si       0.37379034      -2.90886036      -2.52131834       0.00000000
Si       3.49004195      -0.63629133      -1.74002996       0.00000000
