10
Lattice="16.28999089631971 0.0 0.0 0.0 16.28999089631971 0.0 0.0 0.0 34.33025523377368" Properties=species:S:1:pos:R:3:initial_magmoms:R:1 pbc="T T T"
Si       1.35560821      -1.35047358       1.36040578       0.00000000
Si      -1.36210464      -1.32626664      -1.37879308       0.00000000
Si      -1.35889551       1.36445040       1.35566821       0.00000000
Si       1.36644239       1.35154872      -1.37825409       0.00000000
Si       2.70277394      -2.69858511       0.00054928       0.00000000
Si      -0.00224802      -2.70757719       2.71494109       0.00000000
Si      -2.58864390       0.24724962      -2.81961753       0.00000000
Si      -2.71735119      -2.70826137      -0.00645409       0.00000000
Si       2.71174484       0.00531054       2.71446047       0.00000000
Si       2.71085052       2.72012049      -0.00463459       0.00000000
