10
Lattice="16.28999089631971 0.0 0.0 0.0 16.28999089631971 0.0 0.0 0.0 34.33025523377368" Properties=species:S:1:pos:R:3:initial_magmoms:R:1 pbc="T T T"
Si      -1.35762489      -1.35658233      -1.35683544       0.00000000
Si      -1.35773892       1.35755973       1.35711008       0.00000000
Si       1.35738054      -1.35752715       1.35752204       0.00000000
Si       1.35819504       1.35892809      -1.35848329       0.00000000
Si      -0.00037467      -2.71208952       2.71514707       0.00000000
Si       2.71484253      -2.71309950       0.00078960       0.00000000
Si       2.71469592       0.00068418       2.71470078       0.00000000
Si      -2.71625976      -2.71336014      -0.00010299       0.00000000
Si       2.71529865       2.71485882       0.00003433       0.00000000
Si      -2.71516833       2.71536381       0.00034330       0.00000000
