10
Lattice="16.28999089631971 0.0 0.0 0.0 16.28999089631971 0.0 0.0 0.0 34.33025523377368" Properties=species:S:1:pos:R:3:initial_magmoms:R:1 pbc="T T T"
Si       0.25769151      -0.73345725       2.18948191       0.00000000
Si       1.95489238       0.89487486      -1.09626865       0.00000000
Si      -0.83593764      -1.95784623      -1.15864676       0.00000000
Si      -1.76194269       1.68107913       0.25263649       0.00000000
Si      -2.08704222      -1.50768837       1.99695773       0.00000000
Si       0.50948604       2.14878132      -2.49687519       0.00000000
Si      -2.22627285      -0.60031908      -2.50648767       0.00000000
Si      -3.55048695       0.83891871      -1.11992221       0.00000000
Si      -0.83057823       3.57844059      -1.06732823       0.00000000
Si       2.11379107      -2.23176258       2.36690077       0.00000000
