10
Lattice="16.28999089631971 0.0 0.0 0.0 16.28999089631971 0.0 0.0 0.0 34.33025523377368" Properties=species:S:1:pos:R:3:initial_magmoms:R:1 pbc="T T T"
Si      -1.77341085       1.68099768      -0.05733156       0.00000000
Si       1.83161502       0.85403583      -1.39291655       0.00000000
Si      -0.89386488      -1.86331536      -1.36490305       0.00000000
Si       0.00241092       0.35399799       2.50308897       0.00000000
Si       0.45162396       2.04172344      -2.95343351       0.00000000
Si      -0.78130098       3.40571772      -1.41142057       0.00000000
Si      -2.26858775      -0.68380533      -2.95216329       0.00000000
Si      -0.88985754       2.61159651       2.64123399       0.00000000
Si       2.90947545       2.53309500      -0.05647330       0.00000000
Si      -3.52800300       0.80656677      -1.55653464       0.00000000
