10
Lattice="16.28999089631971 0.0 0.0 0.0 16.28999089631971 0.0 0.0 0.0 34.33025523377368" Properties=species:S:1:pos:R:3:initial_magmoms:R:1 pbc="T T T"
Si       1.34301276       1.36609569       1.39273117       0.00000000
Si      -1.37500632      -1.34978940       1.39293715       0.00000000
Si      -1.24602210       1.43405757      -1.54188935       0.00000000
Si       1.42742754      -1.38137571      -1.44285680       0.00000000
Si      -2.73383667      -2.67880905       0.02012441       0.00000000
Si      -2.70335808       2.71195920       0.03177954       0.00000000
Si       2.70588282       2.71536381      -0.00004806       0.00000000
Si       2.71220816      -2.71813311       0.01742948       0.00000000
Si       2.70197265       0.01008351       2.75265633       0.00000000
Si      -0.01312974      -2.70523143       2.75135178       0.00000000
