10
Lattice="16.28999089631971 0.0 0.0 0.0 16.28999089631971 0.0 0.0 0.0 34.33025523377368" Properties=species:S:1:pos:R:3:initial_magmoms:R:1 pbc="T T T"
Si      -1.39589010       1.26242613      -1.43359793       0.00000000
Si       1.12751235       1.61846037       1.35844896       0.00000000
Si       1.34006427      -1.42965927      -1.42954696       0.00000000
Si      -0.93136446      -1.89736146       1.31996472       0.00000000
Si       0.83057823      -3.57844059       1.06732823       0.00000000
Si       2.77566615       2.64047868       0.01393809       0.00000000
Si      -0.02425581       2.61726543      -2.80323856       0.00000000
Si      -2.88978084       2.53780281      -0.03075993       0.00000000
Si      -2.71990872      -2.73952188      -0.05259398       0.00000000
Si       2.78547061      -2.68356573      -0.02894042       0.00000000
