10
Lattice="16.28999089631971 0.0 0.0 0.0 16.28999089631971 0.0 0.0 0.0 34.33025523377368" Properties=species:S:1:pos:R:3:initial_magmoms:R:1 pbc="T T T"
Si       1.86544188      -1.44476010       0.02039218       0.00000000
Si       1.09817147       1.96998228       0.70370197       0.00000000
Si      -1.77477921      -0.29633139       1.53923218       0.00000000
Si      -1.25820702      -1.69036443      -1.55567639       0.00000000
Si       1.47665985      -2.28442815       2.18639219       0.00000000
Si       0.59789254      -3.18866976      -1.37825753       0.00000000
Si       3.07713932       1.74299742      -0.64365832       0.00000000
Si      -3.25897740       1.44762714       1.04957948       0.00000000
Si      -0.23993541       3.88058751       0.36149779       0.00000000
Si      -1.07023671       0.20362500       3.78199468       0.00000000
