10
Lattice="16.28999089631971 0.0 0.0 0.0 16.28999089631971 0.0 0.0 0.0 34.33025523377368" Properties=species:S:1:pos:R:3:initial_magmoms:R:1 pbc="T T T"
Si      -0.60364224      -2.04555159       0.93333717       0.00000000
Si       2.21257296       0.46123506       0.56335980       0.00000000
Si      -1.28622582       1.46176686       1.31704665       0.00000000
Si      -0.31998447       0.56430189      -2.28159004       0.00000000
Si       1.93080483       2.81232189       0.71149494       0.00000000
Si      -2.55733452      -0.11984553      -2.54661976       0.00000000
Si       0.76414761      -3.56374701      -0.24583910       0.00000000
Si      -0.31829031       3.57868494       0.93052209       0.00000000
Si       2.70866862      -0.27072351       2.72050260       0.00000000
Si      -0.77815701       1.24664112       3.65287852       0.00000000
