10
Lattice="16.28999089631971 0.0 0.0 0.0 16.28999089631971 0.0 0.0 0.0 34.33025523377368" Properties=species:S:1:pos:R:3:initial_magmoms:R:1 pbc="T T T"
Si      -1.35733167      -1.35589815      -1.35717874       0.00000000
Si      -1.35731538       1.35734796       1.35652646       0.00000000
Si       1.35754344      -1.35765747       1.35704142       0.00000000
Si       1.35658233       1.35905841      -1.35889525       0.00000000
Si       0.00000000       2.71179630      -2.71576502       0.00000000
Si      -2.71417464       0.00154755       2.71353355       0.00000000
Si       2.71492398      -0.00058644       2.71332757       0.00000000
Si      -2.71562445      -0.00092853      -2.71315592       0.00000000
Si       0.00026064       2.71518462       2.71449480       0.00000000
Si       2.71531494       2.71437012      -0.00048062       0.00000000
