10
Lattice="16.28999089631971 0.0 0.0 0.0 16.28999089631971 0.0 0.0 0.0 34.33025523377368" Properties=species:S:1:pos:R:3:initial_magmoms:R:1 pbc="T T T"
Si      -1.35703845      -1.34904006      -1.37533945       0.00000000
Si       1.35234693       1.36619343      -1.37503048       0.00000000
Si      -1.46885301       1.26338724       1.37417222       0.00000000
Si       1.44288351      -1.32582681       1.44183720       0.00000000
Si       0.95604381       2.06286201       2.80752984       0.00000000
Si      -0.20527029      -2.34784512       2.78634806       0.00000000
Si       2.67857189       0.33976053       2.62997366       0.00000000
Si      -2.72867274      -2.70387936      -0.00569883       0.00000000
Si      -0.00100998      -2.70866862      -2.73529894       0.00000000
Si       2.71391304       0.00690696      -2.73330779       0.00000000
