10
Lattice="16.28999089631971 0.0 0.0 0.0 16.28999089631971 0.0 0.0 0.0 34.33025523377368" Properties=species:S:1:pos:R:3:initial_magmoms:R:1 pbc="T T T"
Si      -0.82658718      -0.25288596      -2.21516096       0.00000000
Si      -2.18619945      -0.39128580       0.90086073       0.00000000
Si       1.44896292      -1.86422760       0.42380724       0.00000000
Si       1.21642317       2.03996412       0.44773544       0.00000000
Si       1.81167606       1.34343630       2.62969902       0.00000000
Si       1.05283899       0.38123487      -3.51809786       0.00000000
Si      -0.11258019       0.35590392       3.69682127       0.00000000
Si       3.35425761      -1.44515106      -1.04415530       0.00000000
Si      -2.38834206       0.61959015       3.02326129       0.00000000
Si       0.33521562      -3.87811143      -0.35607361       0.00000000
