10
Lattice="16.28999089631971 0.0 0.0 0.0 16.28999089631971 0.0 0.0 0.0 34.33025523377368" Properties=species:S:1:pos:R:3:initial_magmoms:R:1 pbc="T T T"
Si       0.14990402      -2.36788182       0.19757073       0.00000000
Si      -2.09798910       1.06318314      -0.39579373       0.00000000
Si       0.02353097       0.63672723       2.37414446       0.00000000
Si       1.56257494       0.36595485      -1.86488917       0.00000000
Si      -1.99181088      -3.06996453      -0.40557786       0.00000000
Si       1.78702019      -0.66352428       3.16384376       0.00000000
Si       0.67845636      -2.68250688       2.50102915       0.00000000
Si       3.43837007       0.05675436       1.64421416       0.00000000
Si       2.87511074      -1.61893278      -1.94038144       0.00000000
Si      -0.37379034       2.90886036       2.52131834       0.00000000
