10
Lattice="16.28999089631971 0.0 0.0 0.0 16.28999089631971 0.0 0.0 0.0 34.33025523377368" Properties=species:S:1:pos:R:3:initial_magmoms:R:1 pbc="T T T"
Si       2.26404936       0.85015881      -0.41611726       0.00000000
Si      -1.54835635       1.90319328      -0.15081290       0.00000000
Si      -0.66199302      -2.36683926       0.65759641       0.00000000
Si       0.09775629      -1.23841467      -2.24701945       0.00000000
Si       0.51702831       0.42917634       2.63306339       0.00000000
Si       3.25668051      -1.23095385      -0.14576635       0.00000000
Si       2.20462344      -2.37588021      -1.91899368       0.00000000
Si      -3.70265903      -0.69543639       0.72055813       0.00000000
Si      -2.26119698       1.88377560      -2.54397633       0.00000000
Si      -2.54150878      -2.23006842       2.07832048       0.00000000
