10
Lattice="16.28999089631971 0.0 0.0 0.0 16.28999089631971 0.0 0.0 0.0 34.33025523377368" Properties=species:S:1:pos:R:3:initial_magmoms:R:1 pbc="T T T"
Si       1.10627019      -1.81708434       1.04772565       0.00000000
Si      -1.76544504      -0.04109967       1.58863345       0.00000000
Si       1.23269688       2.02395105       0.16608987       0.00000000
Si      -0.51702831      -0.42917634      -2.63306339       0.00000000
Si       1.74702105       0.42098247      -3.04918064       0.00000000
Si      -1.17902133      -2.79601560      -1.97546698       0.00000000
Si       2.30762511      -2.74564692      -0.73827255       0.00000000
Si      -0.52277868       3.67414434       0.05571804       0.00000000
Si      -2.06538466       1.47401694      -2.78387628       0.00000000
Si      -2.58504381      -2.21242635       1.69931425       0.00000000
