10
Lattice="16.28999089631971 0.0 0.0 0.0 16.28999089631971 0.0 0.0 0.0 34.33025523377368" Properties=species:S:1:pos:R:3:initial_magmoms:R:1 pbc="T T T"
Si       1.35676152       1.35584928      -1.35680111       0.00000000
Si      -1.36058281       1.35309627       1.35813999       0.00000000
Si      -1.35815020      -1.35923760      -1.35659512       0.00000000
Si       1.35870003      -1.35969372       1.35978784       0.00000000
Si      -0.00140746       2.71344159      -2.71452913       0.00000000
Si       2.71450044      -0.00110772      -2.71397984       0.00000000
Si      -2.71607147       2.71313208      -0.00058361       0.00000000
Si       2.71573848       2.71350675      -0.00020598       0.00000000
Si      -2.71535471      -0.00211770      -2.71425449       0.00000000
Si       2.71595025      -2.71492398      -0.00072094       0.00000000
