10
Lattice="16.28999089631971 0.0 0.0 0.0 16.28999089631971 0.0 0.0 0.0 34.33025523377368" Properties=species:S:1:pos:R:3:initial_magmoms:R:1 pbc="T T T"
Si       1.35725022      -1.35523026      -1.36050878       0.00000000
Si      -1.35870003       1.35969372      -1.35978784       0.00000000
Si      -1.36165829      -1.35874890       1.37825753       0.00000000
Si       1.35855342       1.36677987       1.37698731       0.00000000
Si      -2.62107354       0.13162320       2.77388617       0.00000000
Si       2.70739800      -2.71373481       0.00133888       0.00000000
Si       2.70954828       2.71572219      -0.00308972       0.00000000
Si       2.71249677       0.00118917      -2.71655461       0.00000000
Si      -0.00255753      -2.71402803      -2.71607399       0.00000000
Si      -2.71453921      -2.71595025       0.00024031       0.00000000
