10
Lattice="16.28999089631971 0.0 0.0 0.0 16.28999089631971 0.0 0.0 0.0 34.33025523377368" Properties=species:S:1:pos:R:3:initial_magmoms:R:1 pbc="T T T"
Si      -1.35794114      -1.35630479      -1.35745338       0.00000000
Si       1.35806961      -1.35715164       1.35789967       0.00000000
Si      -1.35710153       1.35784806       1.35841463       0.00000000
Si       1.35969861       1.35869514      -1.35965052       0.00000000
Si      -2.71357421       0.00083568       2.71456346       0.00000000
Si      -2.71407920      -2.71529443       0.00003433       0.00000000
Si       2.71585740       0.00083731       2.71397984       0.00000000
Si       0.00237019       2.71589649       2.71418583       0.00000000
Si       0.00045286      -2.71467541       2.71583368       0.00000000
Si       2.71559676       2.71504941      -0.00024031       0.00000000
