10
Lattice="16.28999089631971 0.0 0.0 0.0 16.28999089631971 0.0 0.0 0.0 34.33025523377368" Properties=species:S:1:pos:R:3:initial_magmoms:R:1 pbc="T T T"
Si       1.07957088      -0.02594997       2.03708982       0.00000000
Si      -1.33486287      -1.85461650       0.46023166       0.00000000
Si      -1.31253580       1.98488763       0.07549227       0.00000000
Si       1.41861465      -0.79169400      -1.82448243       0.00000000
Si      -2.09241140      -2.01707667      -1.78706243       0.00000000
Si      -2.72520672      -0.74894904       2.13795217       0.00000000
Si       3.29163885       0.27793998       1.29167658       0.00000000
Si      -2.27458410       1.99073574      -2.07814883       0.00000000
Si      -2.87511074       1.61893278       1.94038144       0.00000000
Si      -0.11344356      -2.24406153      -3.13442272       0.00000000
