10
Lattice="16.28999089631971 0.0 0.0 0.0 16.28999089631971 0.0 0.0 0.0 34.33025523377368" Properties=species:S:1:pos:R:3:initial_magmoms:R:1 pbc="T T T"
Si       1.38773044       1.85702742       0.29925700       0.00000000
Si      -0.96204830       0.00584811      -2.15364111       0.00000000
Si       1.31253580      -1.98488763      -0.07549227       0.00000000
Si      -1.56257494      -0.36595485       1.86488917       0.00000000
Si       1.55367667       1.90661418       2.64617755       0.00000000
Si       2.39210668      -2.01083760       1.96159755       0.00000000
Si      -2.11798249      -2.09135907      -2.20475888       0.00000000
Si      -1.41267092      -2.73383667       2.06245990       0.00000000
Si      -2.50832347       1.76741613      -2.30754373       0.00000000
Si      -0.02232707      -3.83950413       0.38473939       0.00000000
