10
Lattice="16.28999089631971 0.0 0.0 0.0 16.28999089631971 0.0 0.0 0.0 34.433804113860816" Properties=species:S:1:pos:R:3:initial_magmoms:R:1 pbc="T T T"
Si       0.96277158       1.70134389       1.31955374       0.00000000
Si      -1.64860664      -0.96852195       1.41703933       0.00000000
Si      -1.71248625       0.78332094      -1.59452706       0.00000000
Si       1.88582814      -1.78743654       0.01231730       0.00000000
Si      -0.28489581      -2.27683701       2.75783732       0.00000000
Si      -2.45139413      -2.68240914       0.02115322       0.00000000
Si       1.31937597       3.42010572      -0.31754872       0.00000000
Si       2.43105444       0.44473329       2.72852381       0.00000000
Si      -2.72297450      -1.48175469      -2.23781975       0.00000000
Si       1.07114895      -3.53258424       1.37890043       0.00000000
