10
Lattice="16.28999089631971 0.0 0.0 0.0 16.28999089631971 0.0 0.0 0.0 34.433804113860816" Properties=species:S:1:pos:R:3:initial_magmoms:R:1 pbc="T T T"
Si       1.35329175      -1.35054387      -1.35534972       0.00000000
Si      -1.35853713      -1.35561006       1.35717471       0.00000000
Si      -1.35523026       1.35526326      -1.36216762       0.00000000
Si       1.35721764       1.35924128       1.35624500       0.00000000
Si      -0.00487071      -2.70046359      -2.71503122       0.00000000
Si       2.70179424       0.01492198      -2.72093662       0.00000000
Si       2.71410948      -2.71253448      -0.00041321       0.00000000
Si      -0.00078192      -2.71333269       2.71459046       0.00000000
Si       2.71427238       0.00220158       2.71469377       0.00000000
Si      -2.71524978       0.00258763       2.71438386       0.00000000
