10
Lattice="16.28999089631971 0.0 0.0 0.0 16.28999089631971 0.0 0.0 0.0 34.433804113860816" Properties=species:S:1:pos:R:3:initial_magmoms:R:1 pbc="T T T"
Si      -1.35777150      -1.33286313      -1.36506006       0.00000000
Si      -1.31585733       1.31931895       1.45379602       0.00000000
Si       1.36914192       1.37379271      -1.35710585       0.00000000
Si       1.07530290      -1.63629696       1.35610727       0.00000000
Si       2.23054083       0.24400139       2.64778885       0.00000000
Si       0.41497146       1.94270468       3.01233973       0.00000000
Si      -0.85607208      -3.47729502       1.18290513       0.00000000
Si      -2.71173114      -2.68162626       0.00192829       0.00000000
Si       0.00664632      -2.69928462      -2.71414282       0.00000000
Si      -2.70511740       0.01421465      -2.71851592       0.00000000
