10
Lattice="16.28999089631971 0.0 0.0 0.0 16.28999089631971 0.0 0.0 0.0 34.433804113860816" Properties=species:S:1:pos:R:3:initial_magmoms:R:1 pbc="T T T"
Si      -1.74633687       1.22115379      -1.05546555       0.00000000
Si       1.14795630       0.22774397      -2.07019589       0.00000000
Si       0.04149063       1.28217613       2.03431585       0.00000000
Si      -0.99768105      -2.18879023      -0.24258629       0.00000000
Si      -2.45591298      -1.54839775       1.48581948       0.00000000
Si      -2.22469272      -0.64567111      -2.47489662       0.00000000
Si      -1.49543829      -0.17585381       3.17094193       0.00000000
Si      -0.72656658       2.97128623      -2.30606758       0.00000000
Si       2.89654119      -1.32079387      -2.23093298       0.00000000
Si      -0.24200424      -0.42816703      -3.94983501       0.00000000
