10
Lattice="16.28999089631971 0.0 0.0 0.0 16.28999089631971 0.0 0.0 0.0 34.433804113860816" Properties=species:S:1:pos:R:3:initial_magmoms:R:1 pbc="T T T"
Si      -0.71216622      -0.96638307       2.00342871       0.00000000
Si       1.81695402      -1.05484266      -1.05105802       0.00000000
Si      -2.02230576      -0.15884379      -1.29250799       0.00000000
Si       0.79428411       2.26460322       0.23965941       0.00000000
Si      -2.39127426       2.20825611      -1.08587062       0.00000000
Si      -0.19766286       2.91810915      -1.79968378       0.00000000
Si      -2.02430943       0.86104053       2.79227317       0.00000000
Si       3.16685745       1.88103888       0.52745731       0.00000000
Si       3.71918619      -0.38568693       0.15539984       0.00000000
Si      -2.41152273      -2.53170125       1.69049412       0.00000000
