10
Lattice="16.28999089631971 0.0 0.0 0.0 16.28999089631971 0.0 0.0 0.0 34.433804113860816" Properties=species:S:1:pos:R:3:initial_magmoms:R:1 pbc="T T T"
Si       1.28839239      -1.40142870       1.34196874       0.00000000
Si       1.37759643       1.18164402      -1.54568754       0.00000000
Si      -1.45811790       1.32752097       1.34305340       0.00000000
Si      -1.07289198      -1.70478108      -1.30746915       0.00000000
Si      -1.12879926      -0.28880541      -3.38868907       0.00000000
Si       2.51173881       2.61034218       0.02464429       0.00000000
Si       2.61697221      -0.04311963       2.72164251       0.00000000
Si      -0.10523340       2.68604181       2.72202128       0.00000000
Si      -0.09741420      -2.75317453       2.71840573       0.00000000
Si      -2.86793758       2.65038300      -0.10951333       0.00000000
