10
Lattice="16.28999089631971 0.0 0.0 0.0 16.28999089631971 0.0 0.0 0.0 34.433804113860816" Properties=species:S:1:pos:R:3:initial_magmoms:R:1 pbc="T T T"
Si      -1.35573525      -1.35545832      -1.35924074       0.00000000
Si       1.35736425       1.35643572      -1.35776009       0.00000000
Si       1.35749457      -1.35777150       1.35717471       0.00000000
Si      -1.35830907       1.35799956       1.35762235       0.00000000
Si      -0.00148239      -2.71386513       2.71417726       0.00000000
Si       2.71445157       0.00006516       2.71383292       0.00000000
Si      -2.71495656       0.00001629       2.71407396       0.00000000
Si       2.71485882       2.71466334      -0.00006887       0.00000000
Si      -2.71505430      -2.71518462       0.00000000       0.00000000
Si      -2.71565703       2.71528236      -0.00003443       0.00000000
