10
Lattice="16.28999089631971 0.0 0.0 0.0 16.28999089631971 0.0 0.0 0.0 34.433804113860816" Properties=species:S:1:pos:R:3:initial_magmoms:R:1 pbc="T T T"
Si      -0.65860470       1.02324006       2.00057070       0.00000000
Si       0.47762280       1.51904250      -1.73250339       0.00000000
Si      -1.64858058      -1.45018467      -0.93264011       0.00000000
Si       1.97913726      -1.32486570       0.32632934       0.00000000
Si       1.17001296      -0.04662198      -3.48525386       0.00000000
Si      -0.33643737      -3.27760827      -1.72148456       0.00000000
Si       1.26250758       2.08466388       2.81334667       0.00000000
Si       1.29860622      -3.52101508      -0.04844839       0.00000000
Si      -1.09890711      -0.69828714       3.52784850       0.00000000
Si      -2.80776069      -2.52083352       0.83236881       0.00000000
