10
Lattice="16.28999089631971 0.0 0.0 0.0 16.28999089631971 0.0 0.0 0.0 34.433804113860816" Properties=species:S:1:pos:R:3:initial_magmoms:R:1 pbc="T T T"
Si       0.19360665      -0.20173536      -2.37758664       0.00000000
Si      -1.67630616      -1.07430921       1.40789574       0.00000000
Si       0.25396110       1.98775467       1.39122977       0.00000000
Si      -0.58417569      -2.49206049      -0.10519533       0.00000000
Si      -0.54216378       0.35438895       2.97822756       0.00000000
Si      -1.77903090       3.15180549       0.12175800       0.00000000
Si       0.49317975       2.02883805      -3.05524428       0.00000000
Si      -1.72750563      -1.26315918      -3.19036260       0.00000000
Si       2.21884461      -1.29443598      -2.94288671       0.00000000
Si      -2.16780804      -2.98468638      -1.66308480       0.00000000
