10
Lattice="16.28999089631971 0.0 0.0 0.0 16.28999089631971 0.0 0.0 0.0 34.433804113860816" Properties=species:S:1:pos:R:3:initial_magmoms:R:1 pbc="T T T"
Si      -1.24292700       1.43112537       1.35236775       0.00000000
Si       1.17087633       1.54179963      -1.37143589       0.00000000
Si       1.47768219      -1.30862457       1.32930398       0.00000000
Si      -1.78815330      -0.80104446      -1.36383875       0.00000000
Si      -2.60283249      -2.54619216       0.00274438       0.00000000
Si      -2.59836903       0.06309117       2.71249689       0.00000000
Si       0.12087180      -2.65455324       2.70760728       0.00000000
Si      -2.71120986       2.68773597      -0.05660232       0.00000000
Si       2.76545556       2.73017142      -0.00777860       0.00000000
Si       0.11523546       2.78104509       2.71204925       0.00000000
