10
Lattice="16.28999089631971 0.0 0.0 0.0 16.28999089631971 0.0 0.0 0.0 34.433804113860816" Properties=species:S:1:pos:R:3:initial_magmoms:R:1 pbc="T T T"
Si      -0.04812066       0.09821241       2.37424655       0.00000000
Si       1.90869930       0.75375459      -1.24595346       0.00000000
Si      -1.16434404      -2.07632340      -0.43169684       0.00000000
Si      -1.02752433       2.03641290      -0.83694851       0.00000000
Si       0.96666489       2.84231178      -1.86534908       0.00000000
Si      -2.02836564      -1.07479791       2.70925322       0.00000000
Si      -3.31323939      -1.37430585      -0.90860530       0.00000000
Si      -1.97275158       2.92547223       1.16155616       0.00000000
Si      -0.26842662       2.44776798       2.79878116       0.00000000
Si      -0.01532889      -3.36162069      -1.98727925       0.00000000
