10
Lattice="16.28999089631971 0.0 0.0 0.0 16.28999089631971 0.0 0.0 0.0 34.433804113860816" Properties=species:S:1:pos:R:3:initial_magmoms:R:1 pbc="T T T"
Si       1.40393410      -1.24462020       1.47561329       0.00000000
Si      -1.30481897       1.47550747       1.45045938       0.00000000
Si       1.80219202       1.16881564      -1.18728133       0.00000000
Si      -1.19188945      -1.57397142      -1.55218176       0.00000000
Si       3.01635088      -0.95993223      -1.56034258       0.00000000
Si       2.65974649      -2.67869406       0.07675988       0.00000000
Si      -2.75929209      -2.66356065      -0.10894173       0.00000000
Si       0.06135629      -2.58730716       2.84296664       0.00000000
Si      -2.63403828       2.84173349      -0.04361732       0.00000000
Si      -2.65448223       0.12502249       2.84017750       0.00000000
