10
Lattice="16.28999089631971 0.0 0.0 0.0 16.28999089631971 0.0 0.0 0.0 34.433804113860816" Properties=species:S:1:pos:R:3:initial_magmoms:R:1 pbc="T T T"
Si       0.22030596      -2.34955557      -0.42453461       0.00000000
Si      -1.70432496       0.47770425      -1.63722500       0.00000000
Si       2.03550066       0.98593596      -0.91855667       0.00000000
Si      -0.46514466       0.72270585       2.29408461       0.00000000
Si      -2.16114543       2.69430084      -1.17298819       0.00000000
Si       0.26842662      -2.44776798      -2.79878116       0.00000000
Si      -0.75909771      -0.41135508      -3.63572967       0.00000000
Si       1.06245009      -0.85388922       3.51720845       0.00000000
Si       3.68072550      -0.71185671      -0.77827328       0.00000000
Si      -3.04139187       0.78327207       2.36484612       0.00000000
