10
Lattice="16.28999089631971 0.0 0.0 0.0 16.28999089631971 0.0 0.0 0.0 34.433804113860816" Properties=species:S:1:pos:R:3:initial_magmoms:R:1 pbc="T T T"
Si       1.61189550       1.18302215       1.23422427       0.00000000
Si      -1.14782598      -1.66449984       1.23031259       0.00000000
Si       1.19206962      -1.10723523      -1.82132789       0.00000000
Si      -1.50244299       1.94784743      -0.15314688       0.00000000
Si      -2.44954359      -0.24816031       2.58455354       0.00000000
Si      -0.87970887      -1.70639772      -3.02482445       0.00000000
Si       0.26696052       2.47847789       2.60406030       0.00000000
Si      -3.52377135       1.21171373       1.00334549       0.00000000
Si      -2.32630974       2.01023813      -2.39406567       0.00000000
Si       2.46892869       3.06125264      -0.19780755       0.00000000
