10
Lattice="16.28999089631971 0.0 0.0 0.0 16.28999089631971 0.0 0.0 0.0 34.433804113860816" Properties=species:S:1:pos:R:3:initial_magmoms:R:1 pbc="T T T"
Si      -1.35337320       1.35927507       1.35824216       0.00000000
Si       1.36011726      -1.35536288       1.35679594       0.00000000
Si      -1.35726651      -1.35613724      -1.35889640       0.00000000
Si       1.35760860       1.35850944      -1.35924074       0.00000000
Si      -2.71586880      -2.71380227       0.00120518       0.00000000
Si       0.00001629      -2.71316696      -2.71700083       0.00000000
Si       2.71489140      -2.71567562      -0.00172169       0.00000000
Si       2.71518462       0.00160457      -2.71589895       0.00000000
Si       0.00083079       2.71523838      -2.71627772       0.00000000
Si      -2.71432125       0.00090247      -2.71734517       0.00000000
