10
Lattice="16.28999089631971 0.0 0.0 0.0 16.28999089631971 0.0 0.0 0.0 34.433804113860816" Properties=species:S:1:pos:R:3:initial_magmoms:R:1 pbc="T T T"
Si       1.35337320      -1.35927507      -1.35824216       0.00000000
Si      -1.36256076       1.35783666      -1.36023932       0.00000000
Si       1.34742735       1.37671677       1.37029400       0.00000000
Si      -1.36914192      -1.37379271       1.35710585       0.00000000
Si       2.63075355      -0.09497070       2.66435152       0.00000000
Si       2.70728397       2.71585251      -0.00278914       0.00000000
Si       2.71349046      -2.71463795      -0.00144622       0.00000000
Si       2.71098180      -0.00076563      -2.71748291       0.00000000
Si      -0.00358380       2.71393029      -2.71724187       0.00000000
Si      -0.00389331      -2.71541231      -2.71713857       0.00000000
