10
Lattice="16.28999089631971 0.0 0.0 0.0 16.28999089631971 0.0 0.0 0.0 34.433804113860816" Properties=species:S:1:pos:R:3:initial_magmoms:R:1 pbc="T T T"
Si       1.29160152      -0.16668254       1.98476558       0.00000000
Si       1.76935464       1.03482062      -1.34054318       0.00000000
Si      -1.81556937       1.69870328       0.36455089       0.00000000
Si      -1.15523793      -1.88029836      -1.29168158       0.00000000
Si      -2.23054083      -0.24400139      -2.64778885       0.00000000
Si       0.48602844       2.50650809      -2.63460069       0.00000000
Si       2.54392785       1.81871171       2.14009656       0.00000000
Si      -3.54639816       1.07531756      -1.19399282       0.00000000
Si       0.50604885      -2.95442838      -2.62172244       0.00000000
Si      -0.90039717       3.77898515      -1.12502188       0.00000000
