10
Lattice="16.28999089631971 0.0 0.0 0.0 16.28999089631971 0.0 0.0 0.0 34.433804113860816" Properties=species:S:1:pos:R:3:initial_magmoms:R:1 pbc="T T T"
Si      -1.84492395      -1.41721764      -0.43758503       0.00000000
Si       1.71204642      -1.53206214       0.61336970       0.00000000
Si      -0.43212483       1.41405671       1.87347546       0.00000000
Si       1.09058292       0.99896959      -1.94213650       0.00000000
Si       2.77549020      -0.67017453      -1.42401076       0.00000000
Si       1.83132180       2.07052742       2.21943208       0.00000000
Si      -3.59350884       0.13132021      -0.27684794       0.00000000
Si       0.66595149      -3.61195305       0.05857193       0.00000000
Si      -1.56680478      -3.34326579       0.92954106       0.00000000
Si      -1.62398268      -2.42736054      -2.55481752       0.00000000
