10
Lattice="16.28999089631971 0.0 0.0 0.0 16.28999089631971 0.0 0.0 0.0 34.433804113860816" Properties=species:S:1:pos:R:3:initial_magmoms:R:1 pbc="T T T"
Si       1.74814506       0.94804542      -1.18603861       0.00000000
Si       1.78878861       0.33267438       1.56009323       0.00000000
Si      -1.76249655       1.61955180       0.43627654       0.00000000
Si      -0.92295882      -2.16057528       0.69026042       0.00000000
Si      -1.70512317       1.07818623       2.70756596       0.00000000
Si       0.53408394       1.65780072       3.00479873       0.00000000
Si      -1.90550646      -1.25830476       2.83046028       0.00000000
Si       1.02131784       2.56574016      -2.72416307       0.00000000
Si      -0.84960495       3.79539081       0.10454109       0.00000000
Si      -2.10033486      -3.00250764      -1.37070721       0.00000000
