10
Lattice="16.28999089631971 0.0 0.0 0.0 16.28999089631971 0.0 0.0 0.0 34.433804113860816" Properties=species:S:1:pos:R:3:initial_magmoms:R:1 pbc="T T T"
Si      -0.41489001      -0.93770127      -2.06051999       0.00000000
Si      -1.44910953       1.87317081       0.21262886       0.00000000
Si       1.96647993       1.35360126       0.25574001       0.00000000
Si      -1.57718151      -1.80862983       0.28387244       0.00000000
Si       0.49572099       3.18941910       0.51667952       0.00000000
Si      -1.15782804      -1.86406470       2.63243136       0.00000000
Si       2.65206087       1.20301650      -1.93301154       0.00000000
Si      -1.24740675       0.81941958      -3.31363569       0.00000000
Si      -1.18486944       0.32109219       3.53917723       0.00000000
Si      -2.50211142       2.14454592      -1.86893020       0.00000000
