10
Lattice="16.28999089631971 0.0 0.0 0.0 16.28999089631971 0.0 0.0 0.0 34.433804113860816" Properties=species:S:1:pos:R:3:initial_magmoms:R:1 pbc="T T T"
Si      -0.56558880       1.99899477       1.12743224       0.00000000
Si      -1.89921852      -1.34933328      -0.41998934       0.00000000
Si       1.29381696       0.38323854      -1.95618550       0.00000000
Si       1.55805705      -1.16884008       1.37036287       0.00000000
Si      -3.65254380       0.25809876      -0.73316497       0.00000000
Si       1.58509845      -3.35399697       0.46361700       0.00000000
Si       2.74292649      -1.48993227      -2.16881436       0.00000000
Si       3.42876807       0.30799503       1.65509615       0.00000000
Si      -0.81476064       1.44686151       3.44820307       0.00000000
Si      -1.20682836      -2.91499776      -2.17273982       0.00000000
