10
Lattice="16.28999089631971 0.0 0.0 0.0 16.28999089631971 0.0 0.0 0.0 34.433804113860816" Properties=species:S:1:pos:R:3:initial_magmoms:R:1 pbc="T T T"
Si      -1.35610992      -1.33680627      -1.35442001       0.00000000
Si      -1.32783048       1.36506942       1.38282791       0.00000000
Si       1.35542574       1.37717289      -1.35028795       0.00000000
Si       1.42993620      -1.29557628       1.35676151       0.00000000
Si       0.50564160       2.30335713       2.62984883       0.00000000
Si       2.31371757       0.55434870       2.63194929       0.00000000
Si       0.10534743      -2.65860945       2.68979811       0.00000000
Si      -0.00004887      -2.69583210      -2.71372962       0.00000000
Si       2.71863810      -2.70198972      -0.00024104       0.00000000
Si      -2.71542897      -2.70537804       0.03474373       0.00000000
