10
Lattice="16.28999089631971 0.0 0.0 0.0 16.28999089631971 0.0 0.0 0.0 34.433804113860816" Properties=species:S:1:pos:R:3:initial_magmoms:R:1 pbc="T T T"
Si       0.03818376       0.67826673       2.21829577       0.00000000
Si       0.40294944       1.69137441      -1.57397007       0.00000000
Si       1.47075894      -1.83581784      -0.26093951       0.00000000
Si      -1.94483052      -1.31624829      -0.30405066       0.00000000
Si      -0.49572099      -3.18941910      -0.51667952       0.00000000
Si      -1.30212486       3.13704675      -0.93219247       0.00000000
Si       0.19012059      -1.39149180       3.30723100       0.00000000
Si       2.65150701       2.38435101      -1.22980400       0.00000000
Si       1.72884141       2.30268924       2.45637122       0.00000000
Si       2.15633988      -1.98640260      -2.44969106       0.00000000
