10
Lattice="16.28999089631971 0.0 0.0 0.0 16.28999089631971 0.0 0.0 0.0 34.433804113860816" Properties=species:S:1:pos:R:3:initial_magmoms:R:1 pbc="T T T"
Si      -0.03818376      -0.67826673      -2.21829577       0.00000000
Si       0.15193683      -2.06975853       1.08893523       0.00000000
Si      -2.00427273       1.04904342       0.63258377       0.00000000
Si       1.69065765       1.62442251       0.23807545       0.00000000
Si      -1.84759551       2.79477756      -0.89335111       0.00000000
Si       0.26559216       3.55754052      -0.17588797       0.00000000
Si       2.25199476       1.25924958       2.54483172       0.00000000
Si      -0.02748123      -1.45689615       3.42003620       0.00000000
Si       2.37304575      -2.77096158       0.81590944       0.00000000
Si      -1.98301428      -1.99451502      -2.52234643       0.00000000
