10
Lattice="16.28999089631971 0.0 0.0 0.0 16.28999089631971 0.0 0.0 0.0 34.433804113860816" Properties=species:S:1:pos:R:3:initial_magmoms:R:1 pbc="T T T"
Si      -0.84071061       0.63125379      -2.18207139       0.00000000
Si       0.94420098       1.83075165       1.28017521       0.00000000
Si      -1.88502993      -1.06080480       1.23372054       0.00000000
Si       1.84902903      -1.67796774      -0.10175195       0.00000000
Si      -0.42396354      -2.30619159       2.72150619       0.00000000
Si       2.31335919       0.43934130       2.72814503       0.00000000
Si       0.99380403      -3.52393425       1.20984757       0.00000000
Si       2.08308375       3.30131511      -0.40170498       0.00000000
Si       3.67067457      -0.87149871       1.26042742       0.00000000
Si       2.33743581      -2.40787377      -2.33836651       0.00000000
