10
Lattice="16.28999089631971 0.0 0.0 0.0 16.28999089631971 0.0 0.0 0.0 34.433804113860816" Properties=species:S:1:pos:R:3:initial_magmoms:R:1 pbc="T T T"
Si      -1.35757602       1.30403079       1.45916770       0.00000000
Si      -0.94420098      -1.83075165      -1.28017521       0.00000000
Si       1.36915821      -1.39141035       1.44796982       0.00000000
Si       1.13888277       1.47056346      -1.68188020       0.00000000
Si       2.61622287       2.58916518      -0.12456091       0.00000000
Si      -2.77806402       2.61646722       0.10996441       0.00000000
Si       2.72647359      -2.70225036      -0.01974780       0.00000000
Si       0.90482805      -3.50871939      -1.38192716       0.00000000
Si       0.00443088       2.66359419       2.82242343       0.00000000
Si      -2.70956457      -0.05198139       2.82380078       0.00000000
