10
Lattice="16.28999089631971 0.0 0.0 0.0 16.28999089631971 0.0 0.0 0.0 34.433804113860816" Properties=species:S:1:pos:R:3:initial_magmoms:R:1 pbc="T T T"
Si       1.72524132      -1.58777001      -0.39843377       0.00000000
Si      -1.22810310       0.15943023      -2.05414973       0.00000000
Si       0.61683714       2.32283250       0.19895863       0.00000000
Si      -0.80879850      -0.46763703       2.23630466       0.00000000
Si       2.17157103       1.76053102       1.88917728       0.00000000
Si       0.48482298       1.24229073      -3.28591646       0.00000000
Si       1.26297999       0.13152546       3.43980122       0.00000000
Si      -3.05463564       1.53265509      -1.70691906       0.00000000
Si       1.36661697       3.01199561      -1.95556570       0.00000000
Si       1.56602286      -2.43265086      -2.58071176       0.00000000
