10
Lattice="16.28999089631971 0.0 0.0 0.0 16.28999089631971 0.0 0.0 0.0 34.433804113860816" Properties=species:S:1:pos:R:3:initial_magmoms:R:1 pbc="T T T"
Si       1.35799956       1.35668007       1.35710585       0.00000000
Si      -1.35698958      -1.35760534       1.35751905       0.00000000
Si      -1.35879777       1.35565380      -1.35989499       0.00000000
Si       1.35889551      -1.35768516      -1.36075583       0.00000000
Si      -2.72541474       0.02401146      -2.70160203       0.00000000
Si       0.00063531       2.71420722       2.71421169       0.00000000
Si      -2.71417464      -2.71432522       0.00030990       0.00000000
Si      -2.71456560      -0.00070047       2.71417726       0.00000000
Si      -2.71554300       2.71388142      -0.00120518       0.00000000
Si       2.71421242       2.71580364      -0.00065424       0.00000000
