10
Lattice="16.28999089631971 0.0 0.0 0.0 16.28999089631971 0.0 0.0 0.0 34.433804113860816" Properties=species:S:1:pos:R:3:initial_magmoms:R:1 pbc="T T T"
Si       1.35676925      -1.35700587       1.35366246       0.00000000
Si       1.35545182       1.35835794      -1.35762235       0.00000000
Si      -1.35979146      -1.35694071      -1.35734688       0.00000000
Si      -1.35809730       1.35765747       1.35955065       0.00000000
Si       0.00345348      -2.69970912       2.70980416       0.00000000
Si       2.70990733      -2.71412577       0.00048207       0.00000000
Si      -2.71391400      -0.00547344       2.71300651       0.00000000
Si       2.71279881       0.00063531      -2.71431499       0.00000000
Si       2.71241599       2.71542897       0.00000000       0.00000000
Si      -0.00812871       2.71336014       2.71472820       0.00000000
