10
Lattice="16.28999089631971 0.0 0.0 0.0 16.28999089631971 0.0 0.0 0.0 34.433804113860816" Properties=species:S:1:pos:R:3:initial_magmoms:R:1 pbc="T T T"
Si      -1.28870190       1.40641344       1.35700254       0.00000000
Si      -1.36477620      -1.34975682      -1.35569406       0.00000000
Si       1.35581670       1.36313091      -1.35345586       0.00000000
Si       1.22432382      -1.49721390       1.36137564       0.00000000
Si      -2.61329067       0.04338027       2.69003915       0.00000000
Si       2.54697408      -0.17184321       2.76785959       0.00000000
Si       2.71736748      -2.69423568      -0.00320235       0.00000000
Si      -2.72463282      -2.68889256       0.01738908       0.00000000
Si      -0.00249237      -2.70705591      -2.71214566       0.00000000
Si      -2.71863810       2.70198972       0.00024104       0.00000000
