10
Lattice="16.28999089631971 0.0 0.0 0.0 16.28999089631971 0.0 0.0 0.0 34.433804113860816" Properties=species:S:1:pos:R:3:initial_magmoms:R:1 pbc="T T T"
Si      -1.25079507       1.46914623      -1.33341538       0.00000000
Si       1.46625705      -1.26840456      -1.32184561       0.00000000
Si       1.74642551       1.06148898       1.16561935       0.00000000
Si      -1.40960628      -1.42153056       1.43272252       0.00000000
Si       0.68454231       2.20322250       2.85693989       0.00000000
Si      -2.60076366       0.11344356      -2.68859293       0.00000000
Si       0.11410289      -2.60121978      -2.69448111       0.00000000
Si      -2.49339627       2.87495694       0.08904587       0.00000000
Si       2.88234350      -2.53617381       0.18559831       0.00000000
Si      -2.73225654      -2.74690125       0.02623857       0.00000000
