10
Lattice="16.28999089631971 0.0 0.0 0.0 16.28999089631971 0.0 0.0 0.0 34.433804113860816" Properties=species:S:1:pos:R:3:initial_magmoms:R:1 pbc="T T T"
Si       0.29936133      -2.22861861       0.64818229       0.00000000
Si      -0.57609585       0.13128111      -2.28172287       0.00000000
Si      -1.63155753       0.86006313       1.50582553       0.00000000
Si       2.24161803       0.95636961      -0.00488960       0.00000000
Si       0.09477522       0.16801506       3.09904410       0.00000000
Si       2.11805838       1.29604869       2.35489475       0.00000000
Si       1.47971844       2.80549638      -1.30042777       0.00000000
Si      -0.42769395       2.40264468      -2.63411862       0.00000000
Si       0.81200763      -2.13418548       2.91523635       0.00000000
Si       3.49459500      -0.98302005      -0.87785589       0.00000000
