10
Lattice="16.28999089631971 0.0 0.0 0.0 16.28999089631971 0.0 0.0 0.0 34.433804113860816" Properties=species:S:1:pos:R:3:initial_magmoms:R:1 pbc="T T T"
Si      -0.37675512       2.02662261      -1.05443254       0.00000000
Si      -0.33598125      -1.86955443      -1.38227697       0.00000000
Si      -1.23582456       0.04240287       2.02811776       0.00000000
Si       2.34651327       0.11991069       0.40046537       0.00000000
Si       0.49860432       1.42625466      -3.17868954       0.00000000
Si       1.27200465      -3.27292490      -0.27588379       0.00000000
Si       2.26871549       1.14932466       2.49011637       0.00000000
Si       0.45672273      -0.94625352      -3.41142775       0.00000000
Si       3.10522002      -2.08334439       0.70007406       0.00000000
Si      -2.59786404       2.72782566      -0.78140675       0.00000000
