10
Lattice="16.28999089631971 0.0 0.0 0.0 16.28999089631971 0.0 0.0 0.0 34.433804113860816" Properties=species:S:1:pos:R:3:initial_magmoms:R:1 pbc="T T T"
Si       1.35086454       1.33571484       1.37975642       0.00000000
Si      -1.36511829      -1.37617920       1.37238758       0.00000000
Si       1.35731538      -1.31084001      -1.46771762       0.00000000
Si      -1.36915821       1.39141035      -1.44796982       0.00000000
Si      -0.46433016      -2.11730904      -2.82989698       0.00000000
Si      -2.31335919      -0.43934130      -2.72814503       0.00000000
Si       2.68443352       2.70845685       0.00519951       0.00000000
Si      -2.72673423       2.69544114       0.01119788       0.00000000
Si      -0.00509877       2.69527824       2.73644906       0.00000000
Si       2.69136864      -2.74180248       0.00046141       0.00000000
