10
Lattice="16.28999089631971 0.0 0.0 0.0 16.28999089631971 0.0 0.0 0.0 34.433804113860816" Properties=species:S:1:pos:R:3:initial_magmoms:R:1 pbc="T T T"
Si       0.58083624       2.24358912      -0.39502482       0.00000000
Si       1.19853675      -0.92188368      -1.81180448       0.00000000
Si      -2.24855757      -0.69297660      -0.34416606       0.00000000
Si       0.93053367      -0.37291068       2.18740863       0.00000000
Si       2.99217068       2.10997854      -0.38486684       0.00000000
Si       3.11069183       0.44266446      -1.96448406       0.00000000
Si      -2.65150701      -2.38435101       1.22980400       0.00000000
Si      -0.92266560      -0.08166177       3.68617522       0.00000000
Si      -0.55604286       2.94738228      -2.40089833       0.00000000
Si      -3.95363187       0.75269574       0.29761154       0.00000000
