10
Lattice="16.28999089631971 0.0 0.0 0.0 16.28999089631971 0.0 0.0 0.0 34.433804113860816" Properties=species:S:1:pos:R:3:initial_magmoms:R:1 pbc="T T T"
Si      -1.69065765      -1.62442251      -0.23807545       0.00000000
Si       1.85319927      -0.29124891      -1.49876660       0.00000000
Si       0.56133711      -0.36517293       2.30675626       0.00000000
Si      -1.42506549       1.93311801      -0.41396342       0.00000000
Si       1.67508441      -2.53395837       1.63412596       0.00000000
Si      -1.26584703       2.77799886       1.76831456       0.00000000
Si      -1.55497824       0.85473630       3.12810625       0.00000000
Si       3.35175288       1.43055522      -0.69728492       0.00000000
Si      -3.69493038      -0.57537909       0.39450831       0.00000000
Si      -1.72884141      -2.30268924      -2.45637122       0.00000000
