10
Lattice="16.28999089631971 0.0 0.0 0.0 16.28999089631971 0.0 0.0 0.0 34.433804113860816" Properties=species:S:1:pos:R:3:initial_magmoms:R:1 pbc="T T T"
Si       1.36208004       1.35437574      -1.39267599       0.00000000
Si      -1.35801585      -1.35992178      -1.39580946       0.00000000
Si       1.29810123      -1.53903033       1.37917793       0.00000000
Si      -1.31207805       1.49416981       1.56081635       0.00000000
Si       2.66570930      -0.15641658       2.69613394       0.00000000
Si      -2.68421733      -2.70852201      -0.02066029       0.00000000
Si      -2.70702333       2.68980221      -0.02771923       0.00000000
Si       2.70329848       2.70732862      -0.02892441       0.00000000
Si       0.00360009       2.70894622      -2.75150352       0.00000000
Si       2.73677606      -2.72443734      -0.02348387       0.00000000
