10
Lattice="16.28999089631971 0.0 0.0 0.0 16.28999089631971 0.0 0.0 0.0 34.433804113860816" Properties=species:S:1:pos:R:3:initial_magmoms:R:1 pbc="T T T"
Si      -0.80657166      -0.38470464       2.18730533       0.00000000
Si       0.83802276      -2.00525013      -0.93518821       0.00000000
Si      -2.01284846       0.53320428      -1.14612981       0.00000000
Si       1.56256938       1.75440042       0.44354208       0.00000000
Si      -0.99334628      -3.36263067      -0.33597081       0.00000000
Si       1.49784921       3.01545819      -1.49053691       0.00000000
Si       1.13166630      -1.20637224       3.29762396       0.00000000
Si      -0.91457273       1.75668102       3.12679776       0.00000000
Si       0.83704536       1.58210109      -3.25038076       0.00000000
Si      -2.34242774       2.85404058      -0.99389788       0.00000000
