10
Lattice="16.28999089631971 0.0 0.0 0.0 16.28999089631971 0.0 0.0 0.0 34.433804113860816" Properties=species:S:1:pos:R:3:initial_magmoms:R:1 pbc="T T T"
Si       1.35604476      -1.25574723      -1.37893689       0.00000000
Si      -1.36371083       1.30831506      -1.34079799       0.00000000
Si      -1.34910848      -1.36246302       1.32544395       0.00000000
Si       1.36050822       1.35353610       1.33081562       0.00000000
Si      -0.47578203      -2.16793836      -2.48833752       0.00000000
Si      -2.16649832      -0.40557213      -2.73668410       0.00000000
Si       2.17072395       0.48940047      -2.74552002       0.00000000
Si       0.28489581       2.27683701      -2.75783732       0.00000000
Si       0.00381186       2.70622512       2.68692289       0.00000000
Si      -2.70912934      -0.00542457       2.68575214       0.00000000
