10
Lattice="16.28999089631971 0.0 0.0 0.0 16.28999089631971 0.0 0.0 0.0 34.433804113860816" Properties=species:S:1:pos:R:3:initial_magmoms:R:1 pbc="T T T"
Si       1.23737211      -1.41154479      -1.42666217       0.00000000
Si      -1.47101958       1.29384954      -1.41695183       0.00000000
Si      -1.21160133      -1.82531079       1.06861927       0.00000000
Si       1.74666267       0.85900428       1.63409152       0.00000000
Si      -2.27348453      -0.68357727       2.75993981       0.00000000
Si       0.67109913      -3.38994900       1.25194495       0.00000000
Si       2.57789250      -2.70969489       0.01466881       0.00000000
Si       2.58015681      -0.05833449      -2.78590291       0.00000000
Si      -2.90969441       2.47925655      -0.01429004       0.00000000
Si      -0.12830004       2.65189797      -2.78604065       0.00000000
