10
Lattice="16.28999089631971 0.0 0.0 0.0 16.28999089631971 0.0 0.0 0.0 34.433804113860816" Properties=species:S:1:pos:R:3:initial_magmoms:R:1 pbc="T T T"
Si      -2.01043361      -1.02726369       0.60069805       0.00000000
Si      -0.38380869       2.32881840      -0.18425539       0.00000000
Si       0.46670850      -1.02954429      -2.08255764       0.00000000
Si       1.75158225      -0.73003635       1.53530088       0.00000000
Si      -2.20773809       2.34087300       1.28069719       0.00000000
Si       2.61560385      -1.73156184      -1.60564918       0.00000000
Si       2.11046724      -2.83375953       0.44058077       0.00000000
Si      -1.70911911      -1.61842779       2.82140418       0.00000000
Si      -1.90243254      -3.16864935      -0.33879439       0.00000000
Si       1.80719631       3.27023379      -0.01239618       0.00000000
