10
Lattice="16.28999089631971 0.0 0.0 0.0 16.28999089631971 0.0 0.0 0.0 34.433804113860816" Properties=species:S:1:pos:R:3:initial_magmoms:R:1 pbc="T T T"
Si       0.30131450      -0.59116410       2.22070614       0.00000000
Si       2.01043361       1.02726369      -0.60069805       0.00000000
Si       0.10800107      -2.14138566      -0.93949244       0.00000000
Si      -1.69585809       1.64633256      -0.12148253       0.00000000
Si      -0.19730448       3.36813669       0.67999914       0.00000000
Si      -1.87397295      -0.59637690       3.01141002       0.00000000
Si       2.04623903      -2.96305326       0.17082620       0.00000000
Si       2.47714211      -0.00228060      -2.68325569       0.00000000
Si      -1.99130982      -3.05817057      -0.16913894       0.00000000
Si       0.91457273      -1.75668102      -3.12679776       0.00000000
