10
Lattice="10.86 0.0 0.0 0.0 10.86 0.0 0.0 0.0 10.86" Properties=species:S:1:pos:R:3:initial_magmoms:R:1 pbc="T T T"
Si      -1.27236846      -1.02428262      -1.48143432       0.00000000
Si      -0.80105532       1.77111396       1.19252574       0.00000000
Si       1.65233814      -0.99341850       1.31697048       0.00000000
Si       0.20981520      -2.29734612       2.47589538       0.00000000
Si      -2.50518480      -2.29734612      -0.23910462       0.00000000
Si      -2.50518480       0.41765388       2.47589538       0.00000000
Si       2.92481520      -2.29734612      -0.23910462       0.00000000
Si       0.20981520      -2.29734612      -2.95410462       0.00000000
Si       2.92481520       0.41765388       2.47589538       0.00000000
Si      -2.50518480       0.41765388      -2.95410462       0.00000000
