10
Lattice="10.86 0.0 0.0 0.0 10.86 0.0 0.0 0.0 10.86" Properties=species:S:1:pos:R:3:initial_magmoms:R:1 pbc="T T T"
Si      -1.26760092       1.09333050      -1.18321872       0.00000000
Si       1.44739908       1.09333050       1.53178128       0.00000000
Si       1.44739908      -1.62166950      -1.18321872       0.00000000
Si      -2.46807618       2.42016186       0.15476586       0.00000000
Si       0.08989908       2.45083050      -2.54071872       0.00000000
Si      -2.62510092      -0.26416950      -2.54071872       0.00000000
Si       2.80489908       2.45083050       0.17428128       0.00000000
Si       2.80489908      -0.26416950      -2.54071872       0.00000000
Si       0.03111390       2.42936028       2.91500862       0.00000000
Si      -2.43333504      -2.91535614       0.19532796       0.00000000
