10
Lattice="10.86 0.0 0.0 0.0 10.86 0.0 0.0 0.0 10.86" Properties=species:S:1:pos:R:3:initial_magmoms:R:1 pbc="T T T"
Si       1.36097520       1.30613220       1.37652672       0.00000000
Si       1.36097520      -1.40886780      -1.33847328       0.00000000
Si      -1.35402480      -1.40886780       1.37652672       0.00000000
Si      -2.73660054       2.47798050       0.09913008       0.00000000
Si      -0.05530998       2.64216198      -2.67024594       0.00000000
Si       2.71847520       2.66363220       0.01902672       0.00000000
Si       0.00347520       2.66363220       2.73402672       0.00000000
Si       2.71847520      -0.05136780      -2.69597328       0.00000000
Si      -2.71152480      -0.05136780       2.73402672       0.00000000
Si       2.71847520      -0.05136780       2.73402672       0.00000000
