10
Lattice="10.86 0.0 0.0 0.0 10.86 0.0 0.0 0.0 10.86" Properties=species:S:1:pos:R:3:initial_magmoms:R:1 pbc="T T T"
Si       1.30823904       1.35430716       1.33492206       0.00000000
Si      -1.40676096      -1.36069284       1.33492206       0.00000000
Si      -1.40676096       1.35430716      -1.38007794       0.00000000
Si       2.53185696      -0.28103508      -2.60648688       0.00000000
Si       2.65140384      -2.66263308      -0.00435486       0.00000000
Si       2.66573904      -0.00319284       2.69242206       0.00000000
Si      -0.04926096       2.71180716       2.69242206       0.00000000
Si      -0.04926096      -2.71819284       2.69242206       0.00000000
Si      -0.14268954      -2.73704580      -2.67389490       0.00000000
Si       2.65750716       2.77939980       0.05999064       0.00000000
