10
Lattice="10.86 0.0 0.0 0.0 10.86 0.0 0.0 0.0 10.86" Properties=species:S:1:pos:R:3:initial_magmoms:R:1 pbc="T T T"
Si       1.23544446       1.36662240       1.26668868       0.00000000
Si       1.23544446      -1.34837760      -1.44831132       0.00000000
Si      -1.47955554       1.36662240      -1.44831132       0.00000000
Si      -0.08356770      -2.62264656       2.57983644       0.00000000
Si       2.59294446       0.00912240       2.62418868       0.00000000
Si       2.59294446      -2.70587760      -0.09081132       0.00000000
Si       2.59294446       2.72412240      -0.09081132       0.00000000
Si      -0.12205554       2.72412240       2.62418868       0.00000000
Si       2.59294446       0.00912240      -2.80581132       0.00000000
Si       0.00982830      -2.57742552      -2.92155720       0.00000000
