10
Lattice="16.28999089631971 0.0 0.0 0.0 16.28999089631971 0.0 0.0 0.0 34.376317263855086" Properties=species:S:1:pos:R:3:initial_magmoms:R:1 pbc="T T T"
Si      -1.34855203      -1.33229979      -1.37402217       0.00000000
Si      -1.44169825       1.22118637       1.41802388       0.00000000
Si       1.36452208       1.38165916      -1.37024077       0.00000000
Si       1.25195818      -1.50718405       1.48165448       0.00000000
Si       0.32152225       2.02126972       2.79376487       0.00000000
Si       2.27712046       0.27853456       2.71779316       0.00000000
Si       2.71150960      -2.69177656      -0.00477831       0.00000000
Si      -2.72567605      -2.68903984       0.00048127       0.00000000
Si       0.00378743      -2.69229784      -2.73229998       0.00000000
Si      -2.70958153       0.02151420      -2.73161245       0.00000000
