10
Lattice="16.28999089631971 0.0 0.0 0.0 16.28999089631971 0.0 0.0 0.0 34.376317263855086" Properties=species:S:1:pos:R:3:initial_magmoms:R:1 pbc="T T T"
Si      -1.35953082      -1.34352589       1.39479235       0.00000000
Si       1.35527913       1.37266056       1.39049531       0.00000000
Si      -1.35615879       1.30183164      -1.49714102       0.00000000
Si       1.38407985      -1.46900451      -1.50447005       0.00000000
Si       2.70101232      -2.69479673       0.04001062       0.00000000
Si      -2.70941796      -2.69094420       0.01720879       0.00000000
Si      -2.70423774       2.73614985       0.01011008       0.00000000
Si       0.20013894       2.58965388      -2.83853115       0.00000000
Si      -0.00351864      -2.70042972       2.75540775       0.00000000
Si       2.71733490       2.73965220      -0.00316950       0.00000000
