10
Lattice="16.28999089631971 0.0 0.0 0.0 16.28999089631971 0.0 0.0 0.0 34.376317263855086" Properties=species:S:1:pos:R:3:initial_magmoms:R:1 pbc="T T T"
Si      -1.35428544      -1.34062588      -1.38247875       0.00000000
Si       1.35804843       1.37109998      -1.38412881       0.00000000
Si      -1.43700606       1.29527003       1.39983880       0.00000000
Si       1.40569668      -1.43860641       1.72723903       0.00000000
Si       0.26195949       2.26863011       2.78678647       0.00000000
Si       2.21985459       0.73864073       2.95265229       0.00000000
Si       2.69918784      -2.70140721       0.00226884       0.00000000
Si      -2.72512152      -2.69972934      -0.01681003       0.00000000
Si       2.70992295       2.73383993      -0.03609515       0.00000000
Si      -0.00342090      -2.70179817      -2.74508797       0.00000000
