10
Lattice="16.28999089631971 0.0 0.0 0.0 16.28999089631971 0.0 0.0 0.0 34.376317263855086" Properties=species:S:1:pos:R:3:initial_magmoms:R:1 pbc="T T T"
Si      -1.35832536      -1.35604476      -1.35800280       0.00000000
Si       1.35822762       1.35653346      -1.35762466       0.00000000
Si       1.35733167      -1.35769005       1.35793404       0.00000000
Si      -1.35767376       1.35760860       1.35789967       0.00000000
Si       2.71412577      -0.00091224       2.71373675       0.00000000
Si      -0.00130320       2.71415835       2.71383988       0.00000000
Si      -2.71498914      -0.00192222       2.71490555       0.00000000
Si       2.71508688       2.71480995      -0.00020626       0.00000000
Si      -2.71524978      -2.71497285       0.00044689       0.00000000
Si       2.71500543      -2.71526607       0.00024063       0.00000000
