10
Lattice="16.28999089631971 0.0 0.0 0.0 16.28999089631971 0.0 0.0 0.0 34.376317263855086" Properties=species:S:1:pos:R:3:initial_magmoms:R:1 pbc="T T T"
Si       0.65311497      -1.76720436      -1.40815787       0.00000000
Si       0.13414815      -0.83284254       2.22583341       0.00000000
Si      -2.17352583       0.68991408      -0.71303397       0.00000000
Si       1.49406993       1.87923069      -0.07604046       0.00000000
Si      -0.37641303       1.15147494       3.50232991       0.00000000
Si      -0.00708615      -1.01753856      -3.59346158       0.00000000
Si      -3.49231536      -1.32032079      -0.53259258       0.00000000
Si      -2.86733322       2.39948442       0.78515553       0.00000000
Si       3.66676497       1.19620728       0.61533642       0.00000000
Si       2.90787903      -2.37154707      -1.10134907       0.00000000
