10
Lattice="16.28999089631971 0.0 0.0 0.0 16.28999089631971 0.0 0.0 0.0 34.376317263855086" Properties=species:S:1:pos:R:3:initial_magmoms:R:1 pbc="T T T"
Si       2.22874893      -0.59298858       0.41873815       0.00000000
Si      -1.57708377      -1.71690084       0.30062106       0.00000000
Si      -0.26217126       0.65502090      -2.29843623       0.00000000
Si      -0.67396617       1.38956958       1.86945393       0.00000000
Si      -3.38784922      -0.13248657       0.69502077       0.00000000
Si      -1.26092745       3.30330249       0.60450788       0.00000000
Si       3.30040287       1.57910373       0.48865962       0.00000000
Si       2.30410647      -1.33722981       2.59713222       0.00000000
Si       1.28493891       2.44568286      -2.49434697       0.00000000
Si      -2.49163695       0.21843261       2.88599658       0.00000000
