10
Lattice="16.28999089631971 0.0 0.0 0.0 16.28999089631971 0.0 0.0 0.0 34.376317263855086" Properties=species:S:1:pos:R:3:initial_magmoms:R:1 pbc="T T T"
Si      -1.30774491       1.23369057       1.46718204       0.00000000
Si       1.34109054       1.36347300      -1.36432804       0.00000000
Si      -1.37499003      -1.34801379      -1.36150918       0.00000000
Si       1.17455787      -1.48644621       1.49674569       0.00000000
Si      -2.44177326      -0.50303520       2.72367152       0.00000000
Si       2.67296094      -2.70920619       0.00529396       0.00000000
Si       2.68641648       2.72137482       0.02794796       0.00000000
Si       2.69607645       0.00591327      -2.72484031       0.00000000
Si      -2.72854242       2.70306486       0.01278800       0.00000000
Si      -0.01760949      -2.71016730      -2.72377464       0.00000000
