10
Lattice="16.28999089631971 0.0 0.0 0.0 16.28999089631971 0.0 0.0 0.0 34.376317263855086" Properties=species:S:1:pos:R:3:initial_magmoms:R:1 pbc="T T T"
Si       1.69795557      -1.54833192       0.26098515       0.00000000
Si      -1.42030881      -1.28485746      -1.39038531       0.00000000
Si      -0.64079973       0.32772222       2.26120666       0.00000000
Si       0.80065350       1.69865604      -1.46120056       0.00000000
Si      -1.31628087       2.74458807      -1.97571119       0.00000000
Si      -0.12406464      -1.19122254      -3.47290377       0.00000000
Si       1.21946940      -2.92943070       2.11084456       0.00000000
Si       3.78820692      -0.38444400       0.45717090       0.00000000
Si       1.68904494       0.44356041      -3.43038024       0.00000000
Si       0.27269460      -1.39979970       3.57902352       0.00000000
