10
Lattice="16.28999089631971 0.0 0.0 0.0 16.28999089631971 0.0 0.0 0.0 34.376317263855086" Properties=species:S:1:pos:R:3:initial_magmoms:R:1 pbc="T T T"
Si      -2.31423885      -0.25019811       0.24249068       0.00000000
Si       0.94421727       1.89170883       1.03211513       0.00000000
Si       0.91349433      -1.72752192       1.31781686       0.00000000
Si       0.64079973      -0.32772222      -2.26120666       0.00000000
Si       2.33875530      -1.87605414      -2.00022151       0.00000000
Si       0.83378736       1.12140360       3.34602071       0.00000000
Si      -3.22300419       1.49651343      -1.05789738       0.00000000
Si       2.30089734      -0.63987120       2.87073348       0.00000000
Si       1.86026913      -3.25715292      -0.15036210       0.00000000
Si      -2.91869885       0.59706108       2.39874638       0.00000000
