10
Lattice="16.28999089631971 0.0 0.0 0.0 16.28999089631971 0.0 0.0 0.0 34.376317263855086" Properties=species:S:1:pos:R:3:initial_magmoms:R:1 pbc="T T T"
Si       1.13759586      -0.45747207      -2.01311264       0.00000000
Si      -2.34097074      -0.15654690       0.26260083       0.00000000
Si       0.24027750       2.35738196      -0.08116253       0.00000000
Si       0.93815739      -1.44992403       1.65274551       0.00000000
Si      -0.98429067      -2.68812693       2.10121919       0.00000000
Si      -2.45140065      -0.92685213       2.57650642       0.00000000
Si      -0.35403057       2.87717957      -2.36000425       0.00000000
Si      -0.04093677       0.80694144      -3.64977002       0.00000000
Si       2.43882477       2.75925626       0.67704195       0.00000000
Si       3.42583587       0.23956074      -1.58234277       0.00000000
