10
Lattice="16.28999089631971 0.0 0.0 0.0 16.28999089631971 0.0 0.0 0.0 34.376317263855086" Properties=species:S:1:pos:R:3:initial_magmoms:R:1 pbc="T T T"
Si      -1.99085859      -1.29906886       0.14407123       0.00000000
Si       1.35718343      -1.75839473       1.07257607       0.00000000
Si       1.18372751       0.25562268      -2.17811906       0.00000000
Si       0.15385091       1.53029889       1.97172353       0.00000000
Si      -1.46840571       1.87387128      -0.94222101       0.00000000
Si      -1.35859482      -3.05379575       1.51957158       0.00000000
Si      -3.48719283       0.07563447       1.24270456       0.00000000
Si       1.90324052       2.50409880      -1.97230793       0.00000000
Si       0.47329292      -3.74838506       0.11866711       0.00000000
Si       2.46480569       2.02409766       2.10995078       0.00000000
