10
Lattice="16.28999089631971 0.0 0.0 0.0 16.28999089631971 0.0 0.0 0.0 34.376317263855086" Properties=species:S:1:pos:R:3:initial_magmoms:R:1 pbc="T T T"
Si      -2.25476406       0.60434271      -0.30680880       0.00000000
Si      -0.00205254      -1.12195746      -2.10163171       0.00000000
Si       0.82821618      -1.80263511       1.32022320       0.00000000
Si       1.54160415       1.81939752       0.37666152       0.00000000
Si      -3.15721377      -1.54570923       0.25046599       0.00000000
Si       2.31449949      -1.62487863      -2.31277117       0.00000000
Si      -0.36435843      -1.66363254       3.28751219       0.00000000
Si       3.01812975      -1.15061157       1.90709602       0.00000000
Si       2.36025810       2.39873508      -1.73528309       0.00000000
Si      -2.90787903       2.37154707       1.10134907       0.00000000
