10
Lattice="16.28999089631971 0.0 0.0 0.0 16.28999089631971 0.0 0.0 0.0 34.376317263855086" Properties=species:S:1:pos:R:3:initial_magmoms:R:1 pbc="T T T"
Si      -0.86900634      -1.66302885       1.61115499       0.00000000
Si      -1.74615768       1.85423369       0.13448023       0.00000000
Si       1.83062133       0.95048566       1.61049496       0.00000000
Si      -0.57088305      -1.27850340      -2.33040623       0.00000000
Si       1.28648646       1.86202031      -1.96350759       0.00000000
Si      -2.11514247      -0.31162674       3.03278839       0.00000000
Si      -2.73095334      -2.51224284       0.22358369       0.00000000
Si      -1.95743898       2.25306176      -2.34102851       0.00000000
Si      -3.43207494       0.91416548       1.48830771       0.00000000
Si       0.60439158       2.39318834       3.02234829       0.00000000
