10
Lattice="16.28999089631971 0.0 0.0 0.0 16.28999089631971 0.0 0.0 0.0 34.376317263855086" Properties=species:S:1:pos:R:3:initial_magmoms:R:1 pbc="T T T"
Si       1.82607642       1.50161220       0.40684394       0.00000000
Si       0.86053554      -1.79425553      -1.46608200       0.00000000
Si      -1.91795202       0.96402591      -1.22702895       0.00000000
Si       0.21128130      -0.39882807       2.47550874       0.00000000
Si       3.24392544      -0.39104145       0.37752093       0.00000000
Si       3.09883041      -1.05057305      -1.79217593       0.00000000
Si       1.29811752       3.33909162      -1.12582502       0.00000000
Si       1.95743898      -2.25306176       2.34102851       0.00000000
Si       1.38655593      -3.53156516       0.01062229       0.00000000
Si      -3.58306695      -0.73793700      -1.04414684       0.00000000
