10
Lattice="16.28999089631971 0.0 0.0 0.0 16.28999089631971 0.0 0.0 0.0 34.376317263855086" Properties=species:S:1:pos:R:3:initial_magmoms:R:1 pbc="T T T"
Si       1.35268902       1.34071587      -1.36732910       0.00000000
Si       1.35348723      -1.35431802       1.35817468       0.00000000
Si      -1.35974259       1.35842310       1.35844969       0.00000000
Si      -1.35531171      -1.34587980      -1.39871813       0.00000000
Si      -0.06496452       2.66872554      -2.73653858       0.00000000
Si       2.71217097      -2.71609686      -0.00103129       0.00000000
Si       2.71212210       0.00153126       2.71669312       0.00000000
Si       2.71184517       2.71723716      -0.00395328       0.00000000
Si      -0.00296478      -2.71337643       2.71631498       0.00000000
Si      -2.71736748      -2.71287144      -0.00505332       0.00000000
