10
Lattice="16.28999089631971 0.0 0.0 0.0 16.28999089631971 0.0 0.0 0.0 34.376317263855086" Properties=species:S:1:pos:R:3:initial_magmoms:R:1 pbc="T T T"
Si      -0.65311497       1.76720436       1.40815787       0.00000000
Si       2.25476406      -0.60434271       0.30680880       0.00000000
Si      -0.90244971      -2.15005194       0.55727479       0.00000000
Si      -0.66020112       0.74966580      -2.18530371       0.00000000
Si       2.25271152      -1.72630017      -1.79482290       0.00000000
Si       0.75953754      -0.75189753      -3.46647539       0.00000000
Si      -3.21608583      -1.79123211       0.55229022       0.00000000
Si      -0.51896682       0.93436182       3.63399128       0.00000000
Si      -2.82664080       2.45711844       0.69512390       0.00000000
Si      -0.30814164      -2.66984955       2.83611651       0.00000000
