10
Lattice="16.28999089631971 0.0 0.0 0.0 16.28999089631971 0.0 0.0 0.0 34.376317263855086" Properties=species:S:1:pos:R:3:initial_magmoms:R:1 pbc="T T T"
Si       1.30460094      -1.42109073      -1.35636304       0.00000000
Si       1.36650294       1.34679204       1.37976302       0.00000000
Si      -1.35048987      -1.37135736       1.37639414       0.00000000
Si      -1.43953101       1.34177472      -1.54822082       0.00000000
Si      -2.70583416       2.69013060       0.00850471       0.00000000
Si       2.71466334       2.69267184      -0.00082847       0.00000000
Si      -2.70511740      -2.73331539      -0.00553115       0.00000000
Si       0.00791694       2.69995347       2.73962214       0.00000000
Si      -2.70664866      -0.01433520       2.73965651       0.00000000
Si       2.72357397      -0.01624113       2.73841896       0.00000000
