10
Lattice="16.28999089631971 0.0 0.0 0.0 16.28999089631971 0.0 0.0 0.0 34.376317263855086" Properties=species:S:1:pos:R:3:initial_magmoms:R:1 pbc="T T T"
Si      -1.94080689      -0.23363118      -1.49182987       0.00000000
Si       0.01011609       0.24285132       2.49328131       0.00000000
Si      -0.72123649       2.38071834       0.48216250       0.00000000
Si       2.36986920      -0.91375497      -1.06119751       0.00000000
Si      -2.93968430      -1.19830543       0.63321212       0.00000000
Si      -1.67828214       2.02870773      -2.34505055       0.00000000
Si       1.16380647       3.50280612      -0.35710138       0.00000000
Si      -0.16094520      -3.55024979       1.09880522       0.00000000
Si       2.43864558      -2.90205440       0.26964798       0.00000000
Si      -1.66532996       2.10237111       2.79754218       0.00000000
