10
Lattice="16.28999089631971 0.0 0.0 0.0 16.28999089631971 0.0 0.0 0.0 34.376317263855086" Properties=species:S:1:pos:R:3:initial_magmoms:R:1 pbc="T T T"
Si      -1.82268810       1.08986616      -0.98924783       0.00000000
Si       0.89981073      -1.56706542      -1.49822387       0.00000000
Si       0.59118039      -1.01620278       2.05405486       0.00000000
Si      -2.70459612       1.48545252       1.18196158       0.00000000
Si       2.17337922      -0.01474245      -2.70558956       0.00000000
Si       2.88041409      -1.34281728       1.42053335       0.00000000
Si      -0.57034548       2.58411528      -2.48231526       0.00000000
Si       2.17386792      -2.96028396      -0.08893158       0.00000000
Si       2.99349927       1.72325394      -1.36288424       0.00000000
Si      -1.26249129       2.00463111       2.90449105       0.00000000
