10
Lattice="16.28999089631971 0.0 0.0 0.0 16.28999089631971 0.0 0.0 0.0 34.376317263855086" Properties=species:S:1:pos:R:3:initial_magmoms:R:1 pbc="T T T"
Si       0.79887789       0.49008465       2.11703231       0.00000000
Si      -1.84845888      -1.40248755       0.40450635       0.00000000
Si       2.09500803      -0.54871236      -0.94308041       0.00000000
Si      -0.79532667       2.21939847      -0.38168046       0.00000000
Si       3.10350564       1.57379319      -0.56999404       0.00000000
Si       2.16585324       2.34341424       1.51678709       0.00000000
Si      -3.58590141       0.02116071      -0.39223400       0.00000000
Si      -2.29428360       1.86566112      -2.11682605       0.00000000
Si      -2.07948366       2.51090802       1.62906021       0.00000000
Si      -1.73222973      -2.99967318      -1.24267019       0.00000000
