10
Lattice="16.28999089631971 0.0 0.0 0.0 16.28999089631971 0.0 0.0 0.0 34.376317263855086" Properties=species:S:1:pos:R:3:initial_magmoms:R:1 pbc="T T T"
Si       1.77433938      -0.04285899       1.47110094       0.00000000
Si      -0.65524896       2.24355654      -0.01086292       0.00000000
Si       0.92018952      -0.23613984      -2.14205828       0.00000000
Si      -1.99971153      -1.31642748       0.38353679       0.00000000
Si      -2.16989316       1.47911571      -1.67973093       0.00000000
Si      -1.18954467      -0.28175184      -3.12859038       0.00000000
Si       1.54756629      -2.47428810      -1.97564243       0.00000000
Si      -1.67840757       2.18479851       2.22954605       0.00000000
Si       2.05716636      -2.33911368       1.70300371       0.00000000
Si      -3.57487308       0.26764470      -0.23197152       0.00000000
