10
Lattice="16.28999089631971 0.0 0.0 0.0 16.28999089631971 0.0 0.0 0.0 34.376317263855086" Properties=species:S:1:pos:R:3:initial_magmoms:R:1 pbc="T T T"
Si      -1.77433938       0.04285899      -1.47110094       0.00000000
Si       0.28282698      -2.29625469       0.23190277       0.00000000
Si       1.76347395       1.02493422      -1.15171040       0.00000000
Si      -0.29519109       1.33819092       2.02572876       0.00000000
Si       1.40900355      -2.68907175      -1.81177044       0.00000000
Si       2.90651067      -0.87697215      -1.93466584       0.00000000
Si       2.91880962       2.02364154       0.62224607       0.00000000
Si      -2.42958834       2.28641553      -1.48196387       0.00000000
Si      -0.85414986      -0.19328085      -3.61315922       0.00000000
Si      -2.54040921       0.94956039       2.68726697       0.00000000
