10
Lattice="16.28999089631971 0.0 0.0 0.0 16.28999089631971 0.0 0.0 0.0 34.376317263855086" Properties=species:S:1:pos:R:3:initial_magmoms:R:1 pbc="T T T"
Si      -1.72794546      -1.01327058      -1.32633329       0.00000000
Si       1.35615879      -1.30183164       1.49714102       0.00000000
Si       1.55629773       1.28782224      -1.34139013       0.00000000
Si      -1.34807895       1.43431821       1.50725110       0.00000000
Si      -3.40339151       0.84624921      -1.02207242       0.00000000
Si      -2.71244301      -2.59213485       0.12905220       0.00000000
Si       2.74023864      -2.77083615      -0.00732903       0.00000000
Si      -0.00337203      -2.64535753       2.89193337       0.00000000
Si      -2.68922325       2.85490395       0.09424273       0.00000000
Si       2.71143792       0.07082892       2.88763633       0.00000000
