10
Lattice="16.28999089631971 0.0 0.0 0.0 16.28999089631971 0.0 0.0 0.0 34.376317263855086" Properties=species:S:1:pos:R:3:initial_magmoms:R:1 pbc="T T T"
Si      -1.13740038      -1.62030114      -1.30293191       0.00000000
Si       1.63582551       1.23085108      -1.31647618       0.00000000
Si       1.46753352      -1.25301051       1.52792503       0.00000000
Si      -1.94636178       1.24668374       1.03321517       0.00000000
Si      -0.38159325      -0.77714703       3.44997475       0.00000000
Si      -2.32199289      -0.10893123      -2.71954635       0.00000000
Si       3.55335399       0.30791358       1.29801609       0.00000000
Si       0.39890952       2.60314104      -2.74553487       0.00000000
Si       2.99511198       2.39240871       0.13530526       0.00000000
Si      -3.61548405       1.15386957      -0.99457617       0.00000000
