10
Lattice="16.28999089631971 0.0 0.0 0.0 16.28999089631971 0.0 0.0 0.0 34.376317263855086" Properties=species:S:1:pos:R:3:initial_magmoms:R:1 pbc="T T T"
Si      -0.64948230      -1.34846991      -1.78512878       0.00000000
Si      -1.89501570       1.19992140       0.74995416       0.00000000
Si       1.15843077      -1.59185880       1.32874853       0.00000000
Si       1.37606517       1.91943441      -0.38879637       0.00000000
Si      -0.94552047       2.43783108       2.53886433       0.00000000
Si       2.00350710      -0.41718690       3.19435231       0.00000000
Si       2.87037945      -2.55164931       0.00807844       0.00000000
Si       0.60377256       3.61643931       1.15208854       0.00000000
Si       0.59266278       2.88940617      -2.48513412       0.00000000
Si       1.18900710      -2.13139989      -2.98836931       0.00000000
