10
Lattice="16.28999089631971 0.0 0.0 0.0 16.28999089631971 0.0 0.0 0.0 34.376317263855086" Properties=species:S:1:pos:R:3:initial_magmoms:R:1 pbc="T T T"
Si       1.35747828       1.35519616       1.35755590       0.00000000
Si      -1.35741312       1.35751911      -1.35776216       0.00000000
Si      -1.35749457      -1.35964216       1.35614647       0.00000000
Si       1.35796698      -1.35776881      -1.35779654       0.00000000
Si      -0.00223173      -2.71187506       2.71593684       0.00000000
Si      -2.71451673       2.71439629       0.00010313       0.00000000
Si       0.00096111       2.71499902      -2.71432115       0.00000000
Si      -2.71454931      -2.71493758      -0.00037814       0.00000000
Si       2.71520546       0.00024413      -2.71476804       0.00000000
Si       2.71556561       2.71478725      -0.00013751       0.00000000
