10
Lattice="16.28999089631971 0.0 0.0 0.0 16.28999089631971 0.0 0.0 0.0 34.376317263855086" Properties=species:S:1:pos:R:3:initial_magmoms:R:1 pbc="T T T"
Si      -1.35649327      -1.35785295       1.35666212       0.00000000
Si      -1.35766615       1.35798327      -1.35587146       0.00000000
Si       1.35834178       1.35702216       1.35683400       0.00000000
Si       1.35656454      -1.35671265      -1.36178419       0.00000000
Si      -0.00355990       2.70218520      -2.71822630       0.00000000
Si      -2.71268464       2.71375110      -0.00096254       0.00000000
Si       0.00140461       2.71407690       2.71414927       0.00000000
Si      -2.71434622      -0.00024435       2.71414927       0.00000000
Si      -2.71356430      -2.71523349       0.00010313       0.00000000
Si      -2.70183550       0.01293426      -2.72692695       0.00000000
