10
Lattice="16.28999089631971 0.0 0.0 0.0 16.28999089631971 0.0 0.0 0.0 34.376317263855086" Properties=species:S:1:pos:R:3:initial_magmoms:R:1 pbc="T T T"
Si       1.32344847      -0.25770780      -1.91376503       0.00000000
Si       1.44888147       0.24801525       1.86697883       0.00000000
Si      -1.22777730       1.99912509       0.40952530       0.00000000
Si      -1.27353591      -2.02448862      -0.16796278       0.00000000
Si      -0.69444270      -1.43283582      -2.53192031       0.00000000
Si      -2.04643125       1.41978753       2.52146990       0.00000000
Si       2.73104523      -2.05242597      -1.24112325       0.00000000
Si       2.10118194       1.92156840      -2.40170275       0.00000000
Si      -0.05141124       0.78196887       3.67665232       0.00000000
Si       2.87240985       2.08222038       1.30788210       0.00000000
