10
Lattice="16.28999089631971 0.0 0.0 0.0 16.28999089631971 0.0 0.0 0.0 34.376317263855086" Properties=species:S:1:pos:R:3:initial_magmoms:R:1 pbc="T T T"
Si      -2.19729294      -0.62809353      -0.21856475       0.00000000
Si       1.95615207      -1.25953954       0.05417711       0.00000000
Si      -0.56769021       0.30540492       2.24605946       0.00000000
Si       0.27663678       2.03610339      -1.12011855       0.00000000
Si      -2.34238797      -1.28762513      -2.38826160       0.00000000
Si       1.02477132      -3.37381280      -0.66085069       0.00000000
Si       2.95502948      -0.29486529      -2.07086489       0.00000000
Si      -1.10255607       3.53014074       0.16397512       0.00000000
Si      -2.32090146       2.12040414       1.96522640       0.00000000
Si       1.23872418       1.31838228       3.36673043       0.00000000
