10
Lattice="16.28999089631971 0.0 0.0 0.0 16.28999089631971 0.0 0.0 0.0 34.376317263855086" Properties=species:S:1:pos:R:3:initial_magmoms:R:1 pbc="T T T"
Si       1.35689184      -1.35681039       1.35683400       0.00000000
Si      -1.35754344       1.35832536       1.35710901       0.00000000
Si      -1.35863487      -1.35584928      -1.35851844       0.00000000
Si       1.35855342       1.35718506      -1.35827781       0.00000000
Si       2.71357191       0.00141723      -2.71318673       0.00000000
Si       2.71435383      -0.00102627       2.71418365       0.00000000
Si      -2.71212210      -0.00153126      -2.71669312       0.00000000
Si      -0.00115659       2.71461447       2.71442428       0.00000000
Si      -0.00133578      -2.71472850       2.71432115       0.00000000
Si      -2.71596654      -0.00055386       2.71311798       0.00000000
