10
Lattice="16.28999089631971 0.0 0.0 0.0 16.28999089631971 0.0 0.0 0.0 34.376317263855086" Properties=species:S:1:pos:R:3:initial_magmoms:R:1 pbc="T T T"
Si       1.32685864       1.34539110       1.37089392       0.00000000
Si       1.35247466      -1.35806472      -1.35545895       0.00000000
Si      -1.36151820       1.35532800      -1.35535582       0.00000000
Si      -1.35324288      -1.35374787       1.37986615       0.00000000
Si       2.47835150      -0.14651226       2.82205659       0.00000000
Si       2.71085867      -0.00068418      -2.71270546       0.00000000
Si      -0.00322936       2.71386513      -2.71270546       0.00000000
Si       2.71242251      -2.71510317       0.00649713       0.00000000
Si      -0.00359377      -2.71565703      -2.71256796       0.00000000
Si       2.71165688       2.71694394       0.00701277       0.00000000
