10
Lattice="16.28999089631971 0.0 0.0 0.0 16.28999089631971 0.0 0.0 0.0 34.376317263855086" Properties=species:S:1:pos:R:3:initial_magmoms:R:1 pbc="T T T"
Si       1.35545832      -1.35495333       1.36064977       0.00000000
Si      -1.35646830      -1.35767376      -1.35710901       0.00000000
Si       1.35822762       1.35791811      -1.35748715       0.00000000
Si      -1.35762489       1.35910728       1.35697151       0.00000000
Si      -2.71832859       0.00340461       2.70789278       0.00000000
Si      -2.71375110      -0.00017919      -2.71469929       0.00000000
Si      -2.71463076       2.71417464      -0.00120317       0.00000000
Si       0.00133578       2.71472850      -2.71432115       0.00000000
Si       2.71568961       2.71370223      -0.00013751       0.00000000
Si       0.00063531      -2.71455094      -2.71497430       0.00000000
