10
Lattice="16.28999089631971 0.0 0.0 0.0 16.28999089631971 0.0 0.0 0.0 34.376317263855086" Properties=species:S:1:pos:R:3:initial_magmoms:R:1 pbc="T T T"
Si      -1.35247466       1.35806472       1.35545895       0.00000000
Si      -1.35606843      -1.35759231      -1.35710901       0.00000000
Si       1.35838400       1.35738054      -1.35724652       0.00000000
Si       1.35994784      -1.35703845       1.36195607       0.00000000
Si      -2.71399286       2.71339272       0.00010313       0.00000000
Si      -2.71360190       0.00000000      -2.71473367       0.00000000
Si       0.00132764      -2.71484742      -2.71438990       0.00000000
Si       2.71656275       2.71285515       0.00020626       0.00000000
Si       0.00123315       2.71487511      -2.71456179       0.00000000
Si      -0.02561602       2.70345582       2.72635287       0.00000000
