10
Lattice="16.28999089631971 0.0 0.0 0.0 16.28999089631971 0.0 0.0 0.0 34.376317263855086" Properties=species:S:1:pos:R:3:initial_magmoms:R:1 pbc="T T T"
Si       1.96621929      -0.55130247      -1.15071349       0.00000000
Si      -1.19306331       1.72703322      -1.04892515       0.00000000
Si      -1.34793234      -1.92129147      -0.24898781       0.00000000
Si       0.77048442       0.74487654       2.11311340       0.00000000
Si       2.75225481      -1.83819618       0.64936900       0.00000000
Si      -2.73106737      -1.05054210      -1.98203643       0.00000000
Si      -1.35677781       1.01112030       3.16609497       0.00000000
Si      -1.44907695       0.63293166      -3.23006933       0.00000000
Si       3.11034159       1.52611236      -0.98876657       0.00000000
Si      -2.16658629      -2.50062903       1.86295680       0.00000000
