10
Lattice="16.28999089631971 0.0 0.0 0.0 16.28999089631971 0.0 0.0 0.0 34.376317263855086" Properties=species:S:1:pos:R:3:initial_magmoms:R:1 pbc="T T T"
Si       1.35177582      -1.36029645      -1.35961848       0.00000000
Si       1.35924479       1.33744158       1.37673790       0.00000000
Si      -1.36127385       1.35558864      -1.35992787       0.00000000
Si      -1.36226754      -1.35697329       1.36233421       0.00000000
Si      -0.19590354       2.52297891       2.72535596       0.00000000
Si       2.71279718      -2.71363707       0.00244072       0.00000000
Si       2.71141253       2.71552671       0.00171882       0.00000000
Si       2.71217816      -0.00141723      -2.71707126       0.00000000
Si      -0.00218474       2.71370223      -2.71686500       0.00000000
Si      -0.00208906      -2.71671588      -2.71727752       0.00000000
