10
Lattice="16.28999089631971 0.0 0.0 0.0 16.28999089631971 0.0 0.0 0.0 34.376317263855086" Properties=species:S:1:pos:R:3:initial_magmoms:R:1 pbc="T T T"
Si      -1.28420586      -1.24082559      -1.53950985       0.00000000
Si       1.30391676       1.36863693      -1.59530265       0.00000000
Si      -1.51578450       1.77077187       1.31327918       0.00000000
Si       1.98302310      -1.45810161       1.23204790       0.00000000
Si       3.14946692       0.64873296       1.23682621       0.00000000
Si       0.57003597       3.33169596       1.08337024       0.00000000
Si       2.54772572       2.54422107      -0.05947106       0.00000000
Si      -0.74184660      -0.30765294       3.74306740       0.00000000
Si      -3.17526309      -2.14166259      -0.34654785       0.00000000
Si       0.13755276      -2.51131527      -2.95832439       0.00000000
