10
Lattice="16.28999089631971 0.0 0.0 0.0 16.28999089631971 0.0 0.0 0.0 34.376317263855086" Properties=species:S:1:pos:R:3:initial_magmoms:R:1 pbc="T T T"
Si      -0.77048442      -0.74487654      -2.11311340       0.00000000
Si       0.87952968       2.19895452       0.16555644       0.00000000
Si      -2.12726223       0.26624376       1.05298156       0.00000000
Si       2.07277122      -1.14271092       0.39178711       0.00000000
Si       1.07175168      -2.66914908       1.87299469       0.00000000
Si       1.98177039      -2.58307272      -1.46374441       0.00000000
Si       1.24833528       2.64662001      -2.10843822       0.00000000
Si      -1.57830552       1.60070427       2.89452191       0.00000000
Si      -0.75940722       3.36403161       1.32926418       0.00000000
Si       1.19573487      -1.29617901      -3.26382689       0.00000000
