10
Lattice="16.28999089631971 0.0 0.0 0.0 16.28999089631971 0.0 0.0 0.0 34.376317263855086" Properties=species:S:1:pos:R:3:initial_magmoms:R:1 pbc="T T T"
Si       0.03464883       1.97402220       1.21840049       0.00000000
Si       1.63893690      -1.16507709      -1.16370774       0.00000000
Si      -1.13329530       0.51025167      -2.03143523       0.00000000
Si      -0.81889830      -1.76332734       1.56525773       0.00000000
Si      -2.50027065      -1.34307792      -1.43119002       0.00000000
Si      -1.36785501      -3.09778785      -0.27628262       0.00000000
Si       1.46282571       1.10636793       2.98121903       0.00000000
Si       0.75940722      -3.36403161      -1.32926418       0.00000000
Si      -2.31321258       2.70775638       1.16838292       0.00000000
Si       3.61505792      -1.18532556       0.04207664       0.00000000
