10
Lattice="16.28999089631971 0.0 0.0 0.0 16.28999089631971 0.0 0.0 0.0 34.376317263855086" Properties=species:S:1:pos:R:3:initial_magmoms:R:1 pbc="T T T"
Si      -1.35723848      -1.35801294       1.35697151       0.00000000
Si       1.35775622       1.35728801       1.35734965       0.00000000
Si      -1.35686381       1.35807156      -1.35917159       0.00000000
Si       1.35708181      -1.36011435      -1.36291861       0.00000000
Si      -2.71424435       2.71475489       0.00044689       0.00000000
Si       0.00036015       2.71454312       2.71463054       0.00000000
Si       2.71521984      -0.00097517       2.71469929       0.00000000
Si      -2.71520546      -0.00024413       2.71476804       0.00000000
Si       0.00062888      -2.71550751       2.71490555       0.00000000
Si       2.71636014       2.71428248      -0.00041252       0.00000000
