10
Lattice="16.28999089631971 0.0 0.0 0.0 16.28999089631971 0.0 0.0 0.0 34.376317263855086" Properties=species:S:1:pos:R:3:initial_magmoms:R:1 pbc="T T T"
Si       1.35560493      -1.35842310       1.36188732       0.00000000
Si      -1.36111095       1.35808720       1.36154356       0.00000000
Si       1.35153243       1.35439947      -1.37943644       0.00000000
Si      -1.36853919      -1.36396170      -1.37780700       0.00000000
Si      -0.13950756       2.62532476      -2.77463443       0.00000000
Si      -2.71669959      -2.70984150       0.00278448       0.00000000
Si       2.71327869      -2.71536381       0.00470956       0.00000000
Si       2.71353933       2.71658949       0.00305949       0.00000000
Si       2.71316466       0.00050499       2.71920259       0.00000000
Si      -0.00161271      -2.71495656       2.71978699       0.00000000
