10
Lattice="16.28999089631971 0.0 0.0 0.0 16.28999089631971 0.0 0.0 0.0 34.376317263855086" Properties=species:S:1:pos:R:3:initial_magmoms:R:1 pbc="T T T"
Si      -1.13265999       0.63353439       1.95652919       0.00000000
Si       2.10082749       0.88060482      -0.69759900       0.00000000
Si       0.70816134      -2.22808104       0.65043466       0.00000000
Si      -1.42817688       0.86765427      -1.76281853       0.00000000
Si      -1.46282571      -1.10636793      -2.98121903       0.00000000
Si      -3.14859636      -0.73523286       1.77031258       0.00000000
Si      -0.03536559       2.47464648      -2.75333829       0.00000000
Si       1.59662267      -1.66239450       2.90043464       0.00000000
Si       1.64954073       3.15514494      -1.17604885       0.00000000
Si       0.02761155      -0.16825941       3.90872696       0.00000000
