10
Lattice="16.28999089631971 0.0 0.0 0.0 16.28999089631971 0.0 0.0 0.0 34.376317263855086" Properties=species:S:1:pos:R:3:initial_magmoms:R:1 pbc="T T T"
Si      -1.15189848       1.39789377      -1.52084350       0.00000000
Si       1.62225594      -1.27713600      -1.19732780       0.00000000
Si       0.89943606       0.74269368       2.09183445       0.00000000
Si      -1.59174477      -1.96258662       0.20615489       0.00000000
Si      -0.37396953      -0.63928476       3.49401913       0.00000000
Si       2.18269710       2.94992352      -0.52733300       0.00000000
Si       0.46692027      -2.27584332      -2.97128427       0.00000000
Si      -1.10473893      -2.72174949       2.37437772       0.00000000
Si       0.31912110       3.22449147      -2.00269661       0.00000000
Si       3.16190529       0.13225851      -2.24683735       0.00000000
