10
Lattice="16.28999089631971 0.0 0.0 0.0 16.28999089631971 0.0 0.0 0.0 34.376317263855086" Properties=species:S:1:pos:R:3:initial_magmoms:R:1 pbc="T T T"
Si       1.88504296       1.12208778      -0.83926388       0.00000000
Si      -1.89556371       0.94757301      -1.09468006       0.00000000
Si      -0.94409347      -0.27834723       2.31537968       0.00000000
Si       0.72123649      -2.38071834      -0.48216250       0.00000000
Si      -0.95704564      -0.35201061      -2.82721304       0.00000000
Si       0.73135258      -2.13786702       2.01111881       0.00000000
Si       1.21861906       0.56835810      -3.05217179       0.00000000
Si      -1.21957040      -2.61434952      -1.97399237       0.00000000
Si       1.56153985       3.42524943      -0.18415403       0.00000000
Si      -0.22992520       1.73030751       3.43169483       0.00000000
