10
Lattice="16.28999089631971 0.0 0.0 0.0 16.28999089631971 0.0 0.0 0.0 34.376317263855086" Properties=species:S:1:pos:R:3:initial_magmoms:R:1 pbc="T T T"
Si       1.30774491      -1.23369057      -1.46718204       0.00000000
Si       0.90696204       1.54528569       1.49513000       0.00000000
Si      -1.13402835      -1.73672577       1.25648947       0.00000000
Si      -1.42079751       1.46937429      -1.45439404       0.00000000
Si      -1.13039568       1.93500765       2.72635287       0.00000000
Si      -2.29683950      -0.17182692       2.72157456       0.00000000
Si       2.48230278      -2.72013678       0.02956365       0.00000000
Si       2.46604536       2.82784626       0.02574788       0.00000000
Si      -0.06724512      -2.58170436      -2.82869122       0.00000000
Si       2.64883545       0.12978243      -2.83151008       0.00000000
