10
Lattice="16.28999089631971 0.0 0.0 0.0 16.28999089631971 0.0 0.0 0.0 34.376317263855086" Properties=species:S:1:pos:R:3:initial_magmoms:R:1 pbc="T T T"
Si      -1.10155586       1.77034833       1.04263429       0.00000000
Si       0.50461533       0.40987269      -2.28496071       0.00000000
Si       2.07889722      -0.70222932       0.93097994       0.00000000
Si      -1.88443534      -1.55106864       0.06308058       0.00000000
Si      -0.92760147       0.88231527       3.21346556       0.00000000
Si      -3.07767689       1.79059680      -0.16315009       0.00000000
Si       2.77270461      -2.41179966      -0.56720955       0.00000000
Si       2.14982388      -1.31072598      -2.73659702       0.00000000
Si      -1.61734939       0.37287810      -3.43058650       0.00000000
Si       3.62600739       1.08843264       0.73506920       0.00000000
