10
Lattice="16.28999089631971 0.0 0.0 0.0 16.28999089631971 0.0 0.0 0.0 34.376317263855086" Properties=species:S:1:pos:R:3:initial_magmoms:R:1 pbc="T T T"
Si       1.34655909       1.46241846      -1.29173351       0.00000000
Si      -1.36480456       1.27925370       1.49749166       0.00000000
Si       1.35014289      -1.41667614       1.51994284       0.00000000
Si      -0.98123629      -1.88970516      -1.35488284       0.00000000
Si       2.33638836      -0.00726534      -2.79157307       0.00000000
Si      -2.72747935       2.67597459      -0.03440728       0.00000000
Si       2.62406976      -2.80166823       0.15644327       0.00000000
Si      -2.66762989      -2.79513594       0.15982934       0.00000000
Si       2.80547520       2.68480377       0.10704104       0.00000000
Si       0.00454817       2.62946664       2.88201580       0.00000000
