10
Lattice="16.28999089631971 0.0 0.0 0.0 16.28999089631971 0.0 0.0 0.0 34.376317263855086" Properties=species:S:1:pos:R:3:initial_magmoms:R:1 pbc="T T T"
Si      -1.35501289      -1.35664749      -1.35673087       0.00000000
Si      -1.35233946       1.35999805       1.35827781       0.00000000
Si       1.35957806       1.35788485      -1.35693713       0.00000000
Si       1.35858437      -1.35482301       1.36185295       0.00000000
Si      -0.00378743       2.69229784       2.73229998       0.00000000
Si      -2.71336896       2.71381204       0.00068753       0.00000000
Si      -2.71288026       0.00084708      -2.71466492       0.00000000
Si       0.00217634      -2.71422351      -2.71438990       0.00000000
Si      -2.71410201      -2.71476108       0.00020626       0.00000000
Si       2.71557395       2.71454184       0.00006875       0.00000000
