10
Lattice="16.28999089631971 0.0 0.0 0.0 16.28999089631971 0.0 0.0 0.0 34.376317263855086" Properties=species:S:1:pos:R:3:initial_magmoms:R:1 pbc="T T T"
Si      -1.35924479      -1.33744158      -1.37673790       0.00000000
Si       1.35216774       1.37808513      -1.37501908       0.00000000
Si      -1.55514833       1.18553733       1.34861806       0.00000000
Si       1.42079751      -1.46937429       1.45439404       0.00000000
Si      -0.31133937       2.36112147       2.88444964       0.00000000
Si       2.32775955       0.07591140       2.94952405       0.00000000
Si      -2.72151233      -2.69441487      -0.01440368       0.00000000
Si       2.72854242      -2.70306486      -0.01278800       0.00000000
Si      -0.00746896      -2.69773803      -2.73635638       0.00000000
Si       2.70130554       2.73342942      -0.00935036       0.00000000
