10
Lattice="10.86 0.0 0.0 0.0 10.86 0.0 0.0 0.0 10.86" Properties=species:S:1:pos:R:3:initial_magmoms:R:1 pbc="T T T"
Si      -1.08945348      -1.43428020       1.46775072       0.00000000
Si       1.62554652      -1.43428020      -1.24724928       0.00000000
Si       1.62554652       1.28071980       1.46775072       0.00000000
Si      -2.49190302       1.60160022      -0.97390308       0.00000000
Si      -2.75100090      -0.01535604      -2.44157778       0.00000000
Si      -2.44695348      -2.79178020       0.11025072       0.00000000
Si      -2.51294970      -0.03495834       2.80039218       0.00000000
Si       0.26804652      -2.79178020      -2.60474928       0.00000000
Si       2.98304652      -0.07678020      -2.60474928       0.00000000
Si      -3.10995648       1.93435062       1.53355146       0.00000000
