10
Lattice="10.86 0.0 0.0 0.0 10.86 0.0 0.0 0.0 10.86" Properties=species:S:1:pos:R:3:initial_magmoms:R:1 pbc="T T T"
Si      -1.05345258      -1.41892416       1.19432850       0.00000000
Si       0.25909788       1.61695626       1.46767470       0.00000000
Si      -1.05345258       1.29607584      -1.52067150       0.00000000
Si       1.66154742      -1.41892416      -1.52067150       0.00000000
Si       2.75100090       0.01535604       2.44157778       0.00000000
Si      -2.41095258      -2.77642416      -0.16317150       0.00000000
Si      -2.41095258      -0.06142416      -2.87817150       0.00000000
Si      -2.36061648       2.92451112       0.06861348       0.00000000
Si       0.30404742      -2.77642416       2.55182850       0.00000000
Si       0.30404742       2.65357584      -2.87817150       0.00000000
