10
Lattice="10.86 0.0 0.0 0.0 10.86 0.0 0.0 0.0 10.86" Properties=species:S:1:pos:R:3:initial_magmoms:R:1 pbc="T T T"
Si       2.00610264      -0.54661638      -1.14981336       0.00000000
Si      -0.70889736       2.16838362      -1.14981336       0.00000000
Si      -1.96821210      -1.75844034       0.24150468       0.00000000
Si      -0.40042992      -1.18127478       2.47942488       0.00000000
Si       0.64860264      -1.90411638      -2.50731336       0.00000000
Si       2.00610264       2.16838362       1.56518664       0.00000000
Si      -2.06639736       0.81088362      -2.50731336       0.00000000
Si      -1.89662298       0.76048236       2.80560498       0.00000000
Si      -0.70889736      -3.26161638      -1.14981336       0.00000000
Si      -3.42389736      -0.54661638      -1.14981336       0.00000000
