10
Lattice="10.86 0.0 0.0 0.0 10.86 0.0 0.0 0.0 10.86" Properties=species:S:1:pos:R:3:initial_magmoms:R:1 pbc="T T T"
Si       1.33120794      -1.16035842      -1.32007644       0.00000000
Si      -1.38379206      -1.16035842       1.39492356       0.00000000
Si      -1.38379206       1.55464158      -1.32007644       0.00000000
Si      -0.02629206      -2.51785842      -2.67757644       0.00000000
Si       2.68870794      -2.51785842       0.03742356       0.00000000
Si      -2.63688402       0.20037786       2.60064420       0.00000000
Si      -2.74129206      -2.51785842       0.03742356       0.00000000
Si      -0.02629206      -2.51785842       2.75242356       0.00000000
Si       2.68870794       0.19714158      -2.67757644       0.00000000
Si      -2.74129206       0.19714158      -2.67757644       0.00000000
