10
Lattice="16.28999089631971 0.0 0.0 0.0 16.28999089631971 0.0 0.0 0.0 34.5300574570662" Properties=species:S:1:pos:R:3:initial_magmoms:R:1 pbc="T T T"
Si       2.18652525       0.64311291       0.38490677       0.00000000
Si      -0.71461949      -0.32882994       2.26071866       0.00000000
Si       0.69732603      -2.06707068      -1.05948635       0.00000000
Si      -1.43837442       1.60837686      -1.11953415       0.00000000
Si      -1.07966047      -3.20333076      -0.06647040       0.00000000
Si      -0.86471718      -2.65103460       2.25999352       0.00000000
Si       3.35365488       0.35225496      -1.65913566       0.00000000
Si      -0.80005403       3.72517344      -0.17527467       0.00000000
Si       0.97513569      -1.55668869      -3.34282220       0.00000000
Si      -2.94890444       0.33510159       2.44455678       0.00000000
