10
Lattice="16.28999089631971 0.0 0.0 0.0 16.28999089631971 0.0 0.0 0.0 34.5300574570662" Properties=species:S:1:pos:R:3:initial_magmoms:R:1 pbc="T T T"
Si      -2.18652525      -0.64311291      -0.38490677       0.00000000
Si       0.11585448       2.08682949       1.05351264       0.00000000
Si       1.16712963      -0.29085795      -2.04404242       0.00000000
Si       1.12327695      -1.37516922       1.58893601       0.00000000
Si      -1.48919922      -2.71018359      -1.44439311       0.00000000
Si       2.61278568       1.55699820      -1.89021093       0.00000000
Si      -2.90114474      -0.97194285       1.87581189       0.00000000
Si      -0.66117852       3.50553374      -0.62375131       0.00000000
Si       3.40441452      -0.91274499       1.05244221       0.00000000
Si       2.24676567       2.22082614       1.96013434       0.00000000
