10
Lattice="16.28999089631971 0.0 0.0 0.0 16.28999089631971 0.0 0.0 0.0 34.5300574570662" Properties=species:S:1:pos:R:3:initial_magmoms:R:1 pbc="T T T"
Si       1.31108110       0.38615445      -1.95526560       0.00000000
Si       0.16093706      -2.32927452       0.52261271       0.00000000
Si      -2.36096901       0.44165448       0.03946788       0.00000000
Si       0.56536074       1.57784940       1.88351210       0.00000000
Si      -2.62584441      -0.63713448       2.26206533       0.00000000
Si      -0.54325358       3.51564820       1.04961074       0.00000000
Si       0.04708136      -0.54410229      -3.75065694       0.00000000
Si      -1.57149045      -2.72660391       2.16448333       0.00000000
Si      -2.69483256       2.82412955       0.18680772       0.00000000
Si       3.53559463      -0.44597133      -1.76548829       0.00000000
