10
Lattice="16.28999089631971 0.0 0.0 0.0 16.28999089631971 0.0 0.0 0.0 34.5300574570662" Properties=species:S:1:pos:R:3:initial_magmoms:R:1 pbc="T T T"
Si       1.57316440      -1.74764007       0.20079544       0.00000000
Si      -1.86975058      -0.74867211       1.40388039       0.00000000
Si       0.78584100       1.88444090       1.39535146       0.00000000
Si       0.88703285      -0.11914506      -2.44044770       0.00000000
Si       2.10047170       0.58606533       2.88609775       0.00000000
Si      -0.62692132      -2.13268680       2.87572837       0.00000000
Si       3.33267988      -0.85846671       1.48085139       0.00000000
Si      -0.22158147       1.81865374      -3.27434906       0.00000000
Si       0.68180655      -3.52191429       1.42511294       0.00000000
Si      -2.30417230      -2.33412894      -2.06189447       0.00000000
