10
Lattice="16.28999089631971 0.0 0.0 0.0 16.28999089631971 0.0 0.0 0.0 34.5300574570662" Properties=species:S:1:pos:R:3:initial_magmoms:R:1 pbc="T T T"
Si       0.78713280       1.73121390      -1.48727947       0.00000000
Si       1.69212375      -1.67718582      -0.48435339       0.00000000
Si      -2.42275957      -0.33324453      -0.28442424       0.00000000
Si       0.71239428       0.79373255       2.26886775       0.00000000
Si      -1.73662803      -1.96173954       2.35681890       0.00000000
Si       2.75058279       0.82577661      -2.34476486       0.00000000
Si       1.67961303       3.32562698       0.17023328       0.00000000
Si       0.02288745      -1.07256618       3.63687485       0.00000000
Si       3.80306340      -0.27355797      -0.53714987       0.00000000
Si      -0.66867192       2.82835844       2.53882255       0.00000000
