10
Lattice="16.28999089631971 0.0 0.0 0.0 16.28999089631971 0.0 0.0 0.0 34.5300574570662" Properties=species:S:1:pos:R:3:initial_magmoms:R:1 pbc="T T T"
Si       1.22341158      -1.53258277      -1.39290877       0.00000000
Si       1.59984090       1.86356362       0.17337552       0.00000000
Si      -1.61432271       1.10141968      -1.56096665       0.00000000
Si      -0.31118787      -1.88843782       2.01445015       0.00000000
Si      -2.41012179       1.35464610       2.06334474       0.00000000
Si       2.39735043      -0.13858231      -2.89444915       0.00000000
Si       3.50762796       0.99732658      -1.08904409       0.00000000
Si      -0.35148933       2.64903484      -2.84900757       0.00000000
Si      -3.32791668       2.08206139      -0.10203638       0.00000000
Si      -0.16503399      -2.83742806      -2.80525797       0.00000000
