10
Lattice="16.28999089631971 0.0 0.0 0.0 16.28999089631971 0.0 0.0 0.0 34.5300574570662" Properties=species:S:1:pos:R:3:initial_magmoms:R:1 pbc="T T T"
Si      -1.38575772      -1.25779067      -1.40406198       0.00000000
Si       1.26283338       1.54761516      -1.28804092       0.00000000
Si      -1.71359397       0.98064171       1.45893027       0.00000000
Si       1.61432271      -1.10141968       1.56096665       0.00000000
Si      -0.79579908       0.25322642       3.62431139       0.00000000
Si       3.21416361       0.76214394       1.73434217       0.00000000
Si       0.01220121      -2.55390452      -2.73112189       0.00000000
Si      -3.00564021      -2.27544326      -0.08221611       0.00000000
Si       2.62332531       2.71050939       0.39018987       0.00000000
Si       2.70166392       0.20273557      -2.71924354       0.00000000
