10
Lattice="16.28999089631971 0.0 0.0 0.0 16.28999089631971 0.0 0.0 0.0 34.5300574570662" Properties=species:S:1:pos:R:3:initial_magmoms:R:1 pbc="T T T"
Si       1.37323071      -1.43741005       1.32077544       0.00000000
Si      -1.75356963       1.26765522       1.01584033       0.00000000
Si      -0.32435019      -0.93240702      -2.22373694       0.00000000
Si       1.74977406       1.81881108      -1.00693157       0.00000000
Si      -1.76151915       3.12771258      -0.40714414       0.00000000
Si      -0.12359223       3.01441563      -2.08247440       0.00000000
Si      -0.81985941       2.18660670       2.95239062       0.00000000
Si      -0.91518849       1.01595843      -3.56788924       0.00000000
Si       3.30431247      -1.99040505      -0.03456461       0.00000000
Si       2.20165866      -0.12883761       3.17832091       0.00000000
