10
Lattice="16.28999089631971 0.0 0.0 0.0 16.28999089631971 0.0 0.0 0.0 34.5300574570662" Properties=species:S:1:pos:R:3:initial_magmoms:R:1 pbc="T T T"
Si       0.89839350       1.53365463      -1.48323945       0.00000000
Si       1.52308242       0.01925478       1.76642061       0.00000000
Si      -2.21306166       0.44561295       0.62727337       0.00000000
Si      -0.86656284      -1.90857224      -1.11352592       0.00000000
Si      -2.66994729      -1.86509097       0.43045194       0.00000000
Si      -0.03531672       0.61470315      -3.41978974       0.00000000
Si      -1.93339494      -0.75069207      -2.97231448       0.00000000
Si      -2.23915824       1.40115177       2.73312464       0.00000000
Si       3.53067831      -1.11379617       1.04308456       0.00000000
Si       3.24105840       1.42671078      -1.50692708       0.00000000
