10
Lattice="16.28999089631971 0.0 0.0 0.0 16.28999089631971 0.0 0.0 0.0 34.5300574570662" Properties=species:S:1:pos:R:3:initial_magmoms:R:1 pbc="T T T"
Si       0.86656284       1.90857224       1.11352592       0.00000000
Si      -1.80338445       0.04348127       1.54397785       0.00000000
Si       1.47057975      -1.90505427       0.27751823       0.00000000
Si      -1.06683210       1.15788017      -1.85878856       0.00000000
Si      -1.34649882       2.35418519       1.74079929       0.00000000
Si       0.83124612       2.52327539      -2.30626383       0.00000000
Si      -1.02635145      -1.37522298       3.22124180       0.00000000
Si       0.02492370      -3.75291042       0.12368673       0.00000000
Si       1.76495634       3.44222687      -0.36971353       0.00000000
Si      -1.74949713      -0.18570437      -3.65587188       0.00000000
