10
Lattice="16.28999089631971 0.0 0.0 0.0 16.28999089631971 0.0 0.0 0.0 34.5300574570662" Properties=species:S:1:pos:R:3:initial_magmoms:R:1 pbc="T T T"
Si      -1.96344999       0.90543730       0.85748540       0.00000000
Si       1.26635202       1.68228785      -1.00496335       0.00000000
Si      -0.47833956      -1.59297045      -1.64359712       0.00000000
Si       1.05248061      -1.09933458       1.80761499       0.00000000
Si      -1.05845904      -2.50296243       1.86041148       0.00000000
Si       3.22480098       0.41796719      -1.06577082       0.00000000
Si      -0.11701107       2.11527605      -2.80418753       0.00000000
Si      -0.54371133      -0.08820383      -3.48950597       0.00000000
Si      -1.07096976       2.49985037       2.51499814       0.00000000
Si      -2.75058279      -0.82577661       2.34476486       0.00000000
