10
Lattice="16.28999089631971 0.0 0.0 0.0 16.28999089631971 0.0 0.0 0.0 34.5300574570662" Properties=species:S:1:pos:R:3:initial_magmoms:R:1 pbc="T T T"
Si       0.80646903       1.92282273      -1.01691076       0.00000000
Si      -1.87478352       1.24271523       0.74678197       0.00000000
Si      -0.89248023      -1.59441307      -1.65751274       0.00000000
Si       2.05558623      -0.05139495       2.06351739       0.00000000
Si      -2.34828495      -0.49726854       2.36858927       0.00000000
Si       2.61115668       0.87690699      -1.95074216       0.00000000
Si      -0.96721875      -2.53189443       2.09863447       0.00000000
Si      -0.89088381       2.36600847      -2.56109579       0.00000000
Si       1.07096976      -2.49985037      -2.51499814       0.00000000
Si      -1.67961303      -3.32562698      -0.17023328       0.00000000
