10
Lattice="16.28999089631971 0.0 0.0 0.0 16.28999089631971 0.0 0.0 0.0 34.5300574570662" Properties=species:S:1:pos:R:3:initial_magmoms:R:1 pbc="T T T"
Si       1.35628911       1.35855342      -1.35630688       0.00000000
Si       1.35703845      -1.35749457       1.35737732       0.00000000
Si      -1.35765747       1.35738054       1.35737732       0.00000000
Si      -1.35700587      -1.35943308      -1.35848228       0.00000000
Si       2.71303434      -0.00074934       2.71485822       0.00000000
Si       0.00320913       2.71355562      -2.71465104       0.00000000
Si       0.00122175      -2.71761183      -2.71143975       0.00000000
Si       2.71523349       2.71474479       0.00013812       0.00000000
Si      -2.71510317      -2.71487511      -0.00079419       0.00000000
Si       2.71340901       0.00143352      -2.71703362       0.00000000
