10
Lattice="16.28999089631971 0.0 0.0 0.0 16.28999089631971 0.0 0.0 0.0 34.5300574570662" Properties=species:S:1:pos:R:3:initial_magmoms:R:1 pbc="T T T"
Si      -1.35896067       1.35557235      -1.35613423       0.00000000
Si       1.35596331      -1.36104579      -1.35537457       0.00000000
Si       1.35972630       1.33705062       1.38016717       0.00000000
Si      -1.35692442      -1.35446463       1.37433158       0.00000000
Si      -0.05173704       2.72668536       2.67946490       0.00000000
Si      -0.00016290       2.71360449      -2.71361514       0.00000000
Si       2.56520259      -0.20665494       2.84755731       0.00000000
Si       2.71453302      -0.00127062      -2.71361514       0.00000000
Si       2.72033226       2.70835911       0.00455797       0.00000000
Si      -2.71552671      -0.00099369      -2.71382232       0.00000000
