10
Lattice="16.28999089631971 0.0 0.0 0.0 16.28999089631971 0.0 0.0 0.0 34.5300574570662" Properties=species:S:1:pos:R:3:initial_magmoms:R:1 pbc="T T T"
Si      -1.35972630      -1.33705062      -1.38016717       0.00000000
Si      -1.41146334       1.38963474       1.29929773       0.00000000
Si       1.36060596       1.37130849      -1.37560920       0.00000000
Si       1.20547629      -1.54370556       1.46739014       0.00000000
Si       2.58253515       0.02865411       2.53751175       0.00000000
Si      -2.71665072      -2.69151525      -0.00583558       0.00000000
Si       2.69752626      -2.71857294       0.00694055       0.00000000
Si      -0.00376299      -2.69809641      -2.73554174       0.00000000
Si       2.68920207       2.75247243      -0.03936429       0.00000000
Si       2.71080261       0.01842399      -2.73630140       0.00000000
