10
Lattice="16.28999089631971 0.0 0.0 0.0 16.28999089631971 0.0 0.0 0.0 34.5300574570662" Properties=species:S:1:pos:R:3:initial_magmoms:R:1 pbc="T T T"
Si       1.37705886       1.57235967       1.07012161       0.00000000
Si       1.49204997      -1.17486738      -1.46044960       0.00000000
Si      -1.20547629       1.54370556      -1.46739014       0.00000000
Si      -1.29440340      -1.35294966       1.64204327       0.00000000
Si      -0.50280714       0.64550754       3.12745811       0.00000000
Si      -2.65489533      -2.51584389      -0.03618752       0.00000000
Si       2.79868716       0.26513604       2.46448064       0.00000000
Si      -0.07747524       2.98364382       2.34296930       0.00000000
Si       0.15165990      -2.50769889      -2.84514020       0.00000000
Si       2.64106512      -2.75309145       0.01712692       0.00000000
