10
Lattice="16.28999089631971 0.0 0.0 0.0 16.28999089631971 0.0 0.0 0.0 34.5300574570662" Properties=species:S:1:pos:R:3:initial_magmoms:R:1 pbc="T T T"
Si       0.27974817      -2.32168338      -0.28901674       0.00000000
Si      -1.93350897       0.73739943       1.15655039       0.00000000
Si      -0.12882132       0.55604286      -2.30270723       0.00000000
Si       2.10334851       0.82174905       0.83890821       0.00000000
Si       2.62241307      -2.42862723      -0.31270438       0.00000000
Si       3.07685520      -1.17426465       1.64963989       0.00000000
Si       1.52977761       2.35908522      -2.57739399       0.00000000
Si       3.27112974       1.84184514      -0.99173833       0.00000000
Si      -0.66191157      -1.38057750      -3.64855150       0.00000000
Si      -2.20558455       1.49682294      -2.94614068       0.00000000
