10
Lattice="16.28999089631971 0.0 0.0 0.0 16.28999089631971 0.0 0.0 0.0 34.5300574570662" Properties=species:S:1:pos:R:3:initial_magmoms:R:1 pbc="T T T"
Si      -0.89839350      -1.53365463       1.48323945       0.00000000
Si      -0.93371022      -0.91895148      -1.93655029       0.00000000
Si       2.34266490      -0.10694385      -0.02368763       0.00000000
Si      -0.27974817       2.32168338       0.28901674       0.00000000
Si      -0.40856949       2.87772624      -2.01369049       0.00000000
Si       2.79710703       1.14741873       1.93865663       0.00000000
Si      -0.94165974       0.94110588      -3.35953476       0.00000000
Si       0.62468892      -1.51439985       3.24966005       0.00000000
Si       0.81985941      -2.18660670      -2.95239062       0.00000000
Si       1.82360034       3.14343243       1.12792496       0.00000000
