10
Lattice="16.28999089631971 0.0 0.0 0.0 16.28999089631971 0.0 0.0 0.0 34.5300574570662" Properties=species:S:1:pos:R:3:initial_magmoms:R:1 pbc="T T T"
Si       1.30015377      -1.44303336      -1.28728817       0.00000000
Si      -1.32913368      -1.35062019       1.36839586       0.00000000
Si       1.38523644       1.36616085       1.36780885       0.00000000
Si      -1.37974671       1.08608688      -1.65531663       0.00000000
Si       2.32163451       0.12611718      -2.63344079       0.00000000
Si       0.57111111       1.87732476      -3.05706307       0.00000000
Si      -2.67946065       2.70042588      -0.03222001       0.00000000
Si      -2.66869296      -2.71345788       0.02474425       0.00000000
Si      -2.69097768       0.00589698       2.72563506       0.00000000
Si       0.02394630      -2.70562239       2.72674002       0.00000000
