10
Lattice="16.28999089631971 0.0 0.0 0.0 16.28999089631971 0.0 0.0 0.0 34.5300574570662" Properties=species:S:1:pos:R:3:initial_magmoms:R:1 pbc="T T T"
Si       1.33727868      -1.35518139       1.31614841       0.00000000
Si      -1.33064865      -1.36489023      -1.35982895       0.00000000
Si       1.38613239       1.34936586      -1.36114110       0.00000000
Si      -1.27400832       1.38205989       1.54131904       0.00000000
Si       2.41248384       0.28170297       2.66637800       0.00000000
Si      -0.13546764      -2.54296674       2.80470548       0.00000000
Si      -2.66261190       2.71085148       0.01647085       0.00000000
Si       0.75336363       2.19098871       3.03070484       0.00000000
Si      -2.68467182      -0.01265733      -2.71962338       0.00000000
Si      -2.68395832      -2.72083725       0.02921244       0.00000000
