10
Lattice="16.28999089631971 0.0 0.0 0.0 16.28999089631971 0.0 0.0 0.0 34.5300574570662" Properties=species:S:1:pos:R:3:initial_magmoms:R:1 pbc="T T T"
Si       1.36801791      -1.28653533      -1.35454585       0.00000000
Si       1.72923237       1.04288580       1.17547287       0.00000000
Si      -1.31224095       1.41012756      -1.33707363       0.00000000
Si      -1.65744234      -1.01248866       1.33434576       0.00000000
Si       1.85440473      -0.96980886       2.67573565       0.00000000
Si       0.21224241       2.22454611       2.61858837       0.00000000
Si      -0.19318311      -2.59906950       2.49517788       0.00000000
Si      -2.58414786       2.70497079       0.15977067       0.00000000
Si       2.75542092      -2.59825500      -0.02831466       0.00000000
Si       0.03942180      -2.66769927      -2.69079076       0.00000000
