10
Lattice="16.28999089631971 0.0 0.0 0.0 16.28999089631971 0.0 0.0 0.0 34.5300574570662" Properties=species:S:1:pos:R:3:initial_magmoms:R:1 pbc="T T T"
Si      -0.84220929       1.57297869       1.54017954       0.00000000
Si       2.09771217       0.82916100      -0.70838452       0.00000000
Si       0.32101074      -2.20423248       0.87019246       0.00000000
Si      -1.95774849       0.00907353      -1.42074001       0.00000000
Si      -1.34454402      -2.18276226       2.53323002       0.00000000
Si       3.50655282       0.78762150       1.27022340       0.00000000
Si       2.90629890      -0.70861500      -2.40474361       0.00000000
Si       0.48413880      -3.75655545      -0.92178040       0.00000000
Si      -0.66771081       3.77892162       0.75727911       0.00000000
Si      -3.12334686       1.11055446       2.07667335       0.00000000
