10
Lattice="16.28999089631971 0.0 0.0 0.0 16.28999089631971 0.0 0.0 0.0 34.5300574570662" Properties=species:S:1:pos:R:3:initial_magmoms:R:1 pbc="T T T"
Si       1.33828866       1.33768593      -1.38963877       0.00000000
Si      -1.35946566       1.35378751       1.36214247       0.00000000
Si       1.35511623      -1.36278882       1.36062314       0.00000000
Si      -1.34791605      -1.38404727      -1.39591979       0.00000000
Si       2.57681736      -0.24653286      -2.80088300       0.00000000
Si       2.71472850       2.71097270       0.00065607       0.00000000
Si      -0.00063531       2.71167968       2.71962338       0.00000000
Si       2.71433754      -0.00399105       2.71903636       0.00000000
Si      -2.71777473      -2.71614573       0.00141573       0.00000000
Si      -2.72082096       2.71398309       0.00545575       0.00000000
