10
Lattice="16.28999089631971 0.0 0.0 0.0 16.28999089631971 0.0 0.0 0.0 34.5300574570662" Properties=species:S:1:pos:R:3:initial_magmoms:R:1 pbc="T T T"
Si       1.35772263       1.35746617      -1.35799886       0.00000000
Si      -1.35726651      -1.35822762      -1.35786074       0.00000000
Si       1.35809730      -1.36088289       1.35634141       0.00000000
Si      -1.35801585       1.35734796       1.36158999       0.00000000
Si      -2.69764029      -0.03565881       2.72366339       0.00000000
Si       2.71450044       2.71334126      -0.00034530       0.00000000
Si       0.01135413      -2.71544526       2.71364967       0.00000000
Si       2.71456560      -2.71477737      -0.00179556       0.00000000
Si      -2.71580364      -2.71417464      -0.00107043       0.00000000
Si       2.70848943       0.00412137       2.72155706       0.00000000
