10
Lattice="16.28999089631971 0.0 0.0 0.0 16.28999089631971 0.0 0.0 0.0 34.5300574570662" Properties=species:S:1:pos:R:3:initial_magmoms:R:1 pbc="T T T"
Si       1.44565605       1.84785615       0.15383149       0.00000000
Si      -1.16712963       0.29085795       2.04404242       0.00000000
Si      -1.30476384       0.17205498      -2.04794432       0.00000000
Si       1.12174569      -2.18579220       0.13556508       0.00000000
Si      -2.37851919      -1.90894365      -1.68368654       0.00000000
Si      -2.65632885      -2.41932564       0.59964931       0.00000000
Si       2.39542821      -0.21748779      -2.75864236       0.00000000
Si       1.62549765      -2.48617980      -2.14704564       0.00000000
Si       2.41178337       1.58405589       2.31358420       0.00000000
Si      -0.02492370       3.75291042      -0.12368673       0.00000000
