10
Lattice="16.28999089631971 0.0 0.0 0.0 16.28999089631971 0.0 0.0 0.0 34.5300574570662" Properties=species:S:1:pos:R:3:initial_magmoms:R:1 pbc="T T T"
Si      -1.05248061       1.09933458      -1.80761499       0.00000000
Si       1.81345167      -1.38825009      -0.81642913       0.00000000
Si      -2.11093965      -1.40362785       0.05279649       0.00000000
Si       1.05296931       1.80725074       1.61321066       0.00000000
Si       3.54529044      -0.41430357       0.67779088       0.00000000
Si       1.06186365      -3.49923861       0.02620833       0.00000000
Si      -3.01593060       2.00477187      -0.95012959       0.00000000
Si      -1.53082017      -0.49363587      -3.45121211       0.00000000
Si      -3.80306340       0.27355797       0.53714987       0.00000000
Si       2.12442777      -0.89265942      -3.12611144       0.00000000
