10
Lattice="16.28999089631971 0.0 0.0 0.0 16.28999089631971 0.0 0.0 0.0 34.5300574570662" Properties=species:S:1:pos:R:3:initial_magmoms:R:1 pbc="T T T"
Si      -1.33284780      -1.34903096      -1.37560920       0.00000000
Si       1.27801566      -1.37333564       1.44760441       0.00000000
Si       1.37971413       1.36684503      -1.37122388       0.00000000
Si      -1.55826882       1.12190859       1.48696870       0.00000000
Si       2.34110106       0.34373529       2.74306930       0.00000000
Si      -0.12344562       2.73530277       2.55854057       0.00000000
Si      -2.69873172      -2.70258335      -0.01153305       0.00000000
Si      -2.70728397       2.70013266       0.00939218       0.00000000
Si       2.72109789      -2.69732168      -0.00635353       0.00000000
Si      -2.69272071       0.00663655      -2.73343541       0.00000000
