10
Lattice="16.28999089631971 0.0 0.0 0.0 16.28999089631971 0.0 0.0 0.0 34.5300574570662" Properties=species:S:1:pos:R:3:initial_magmoms:R:1 pbc="T T T"
Si       1.43482320       1.61339418       1.07157187       0.00000000
Si       1.55826882      -1.12190859      -1.48696870       0.00000000
Si      -1.14901515       1.57822407      -1.47757651       0.00000000
Si      -1.43684316      -1.41446070       1.70664904       0.00000000
Si      -2.54712069      -2.55036959      -0.09875602       0.00000000
Si       2.83628448      -2.49524423      -0.03936429       0.00000000
Si       0.22542102      -2.47093955      -2.86257789       0.00000000
Si      -2.48940522       0.24539256      -2.86226712       0.00000000
Si      -2.64106512       2.75309145      -0.01712692       0.00000000
Si       0.15762204       3.01822749       2.44735372       0.00000000
