10
Lattice="16.28999089631971 0.0 0.0 0.0 16.28999089631971 0.0 0.0 0.0 34.5300574570662" Properties=species:S:1:pos:R:3:initial_magmoms:R:1 pbc="T T T"
Si       0.62732790       2.08791699      -0.92582042       0.00000000
Si       1.84065597      -0.13296224       1.52906086       0.00000000
Si      -1.93108176       0.55299500       1.35534004       0.00000000
Si      -0.35592021      -1.35929854      -2.01141150       0.00000000
Si       1.20273957       1.74532200       2.78419462       0.00000000
Si       1.29143862       3.29314893       0.98144837       0.00000000
Si       1.58260608      -2.19170125       2.58930687       0.00000000
Si      -2.61241101      -1.56473173       2.19884076       0.00000000
Si      -3.30431247       1.99040505       0.03456461       0.00000000
Si      -1.52409240      -3.46590505      -0.74139528       0.00000000
