10
Lattice="16.28999089631971 0.0 0.0 0.0 16.28999089631971 0.0 0.0 0.0 34.5300574570662" Properties=species:S:1:pos:R:3:initial_magmoms:R:1 pbc="T T T"
Si       0.62418393      -1.84291539       1.27982276       0.00000000
Si       2.08052622       0.74098323      -0.75127088       0.00000000
Si      -1.07300601       1.88726166       1.02243557       0.00000000
Si      -1.46671902      -0.96879888      -1.63814137       0.00000000
Si       1.06109802       2.79968085      -1.54791428       0.00000000
Si      -3.47431491       0.16425207      -0.91480532       0.00000000
Si       0.69010956      -3.53755988      -0.27793259       0.00000000
Si       3.43231929       0.22367799       1.28659066       0.00000000
Si       2.63487492      -0.76101993      -2.45028878       0.00000000
Si       0.40632147       3.66279021       0.52596213       0.00000000
