10
Lattice="16.28999089631971 0.0 0.0 0.0 16.28999089631971 0.0 0.0 0.0 34.5300574570662" Properties=species:S:1:pos:R:3:initial_magmoms:R:1 pbc="T T T"
Si      -1.26555381       1.34063442       1.41699004       0.00000000
Si       1.44749682      -1.38844557       1.36590970       0.00000000
Si      -1.88102259      -0.94646529      -1.21157579       0.00000000
Si       1.31517315       1.51233102      -1.45485369       0.00000000
Si      -0.52593894       2.50460379      -2.69389644       0.00000000
Si      -2.70713736       2.59444314       0.10066208       0.00000000
Si      -2.62622493      -0.02526579       2.75396354       0.00000000
Si       0.09306477       2.68741017       2.75479226       0.00000000
Si       0.09138690      -2.73914721       2.75240968       0.00000000
Si       2.85104322      -2.67489945      -0.17162829       0.00000000
