10
Lattice="16.28999089631971 0.0 0.0 0.0 16.28999089631971 0.0 0.0 0.0 34.5300574570662" Properties=species:S:1:pos:R:3:initial_magmoms:R:1 pbc="T T T"
Si       1.36067112       1.36590021      -1.33697349       0.00000000
Si      -1.35711990       1.35711990       1.36072673       0.00000000
Si       1.35913986      -1.35868374       1.35979442       0.00000000
Si      -1.38476403      -1.35793440      -1.33664546       0.00000000
Si      -0.08091243       2.61970893      -2.65330146       0.00000000
Si       2.62622493       0.02526579      -2.75396354       0.00000000
Si      -2.71019988       2.71212210       0.00238258       0.00000000
Si      -2.71340901      -0.00143352       2.71703362       0.00000000
Si       0.00182448       2.71331127       2.71717174       0.00000000
Si      -2.71218726      -2.71904535       0.00559387       0.00000000
