10
Lattice="16.28999089631971 0.0 0.0 0.0 16.28999089631971 0.0 0.0 0.0 34.5300574570662" Properties=species:S:1:pos:R:3:initial_magmoms:R:1 pbc="T T T"
Si      -0.89342505      -1.83407481       1.25697939       0.00000000
Si       1.88102259       0.94646529       1.21157579       0.00000000
Si       0.80247798      -0.67276071      -2.22927526       0.00000000
Si      -1.74571785       1.83213630      -0.05905472       0.00000000
Si      -2.12996637      -0.43673490       2.62889387       0.00000000
Si       0.55506546       1.70926083      -2.98772840       0.00000000
Si       0.61546878       2.28709971       2.62856584       0.00000000
Si      -3.53028735       0.83297286       1.22086093       0.00000000
Si       3.09526290      -1.18933290      -1.95206781       0.00000000
Si      -0.61698375      -2.82952413      -2.55921015       0.00000000
