10
Lattice="16.28999089631971 0.0 0.0 0.0 16.28999089631971 0.0 0.0 0.0 34.5300574570662" Properties=species:S:1:pos:R:3:initial_magmoms:R:1 pbc="T T T"
Si      -1.35019665       1.35288450       1.36069220       0.00000000
Si      -1.35599589      -1.35674523      -1.35748091       0.00000000
Si       1.35975888       1.35811359      -1.35703202       0.00000000
Si       1.36057338      -1.35713619       1.36373085       0.00000000
Si      -2.71303434       0.00074934      -2.71485822       0.00000000
Si       0.00211770      -2.71476108      -2.71472010       0.00000000
Si      -2.71362078       2.71603170       0.00200274       0.00000000
Si       0.00219915       2.71549413      -2.71472010       0.00000000
Si       2.71601541      -2.71505430      -0.00027624       0.00000000
Si      -2.71456560      -2.71652040       0.00075966       0.00000000
