10
Lattice="16.28999089631971 0.0 0.0 0.0 16.28999089631971 0.0 0.0 0.0 34.5300574570662" Properties=species:S:1:pos:R:3:initial_magmoms:R:1 pbc="T T T"
Si      -1.37705886      -1.57235967      -1.07012161       0.00000000
Si       1.42162830      -1.30722363       1.39435903       0.00000000
Si      -1.45453410       1.41128415       1.27284769       0.00000000
Si       1.49406993       1.41209865      -1.25064485       0.00000000
Si      -1.87986600      -0.92685213       2.05733650       0.00000000
Si       2.46301542       1.63580922       0.94135895       0.00000000
Si       0.59305374       3.04054479       1.45340546       0.00000000
Si      -2.58253515      -0.02865411      -2.53751175       0.00000000
Si       0.11499111      -2.74722705      -2.53057121       0.00000000
Si       0.10666692       2.72381832      -2.57687604       0.00000000
