10
Lattice="16.28999089631971 0.0 0.0 0.0 16.28999089631971 0.0 0.0 0.0 34.5300574570662" Properties=species:S:1:pos:R:3:initial_magmoms:R:1 pbc="T T T"
Si       1.36243044       1.34470692      -1.37132747       0.00000000
Si      -1.35418770      -1.36475991      -1.37277773       0.00000000
Si      -1.27899306       1.44068760       1.39791563       0.00000000
Si       1.29093363      -1.45758033       1.41953146       0.00000000
Si      -2.37245931      -0.37708092       2.49649002       0.00000000
Si       2.69133606      -2.71917567      -0.01616008       0.00000000
Si       2.70303228       2.71498914      -0.00296959       0.00000000
Si      -2.71679733       2.70972747      -0.00814910       0.00000000
Si       0.00247608       2.70363501      -2.73005146       0.00000000
Si      -2.73367377      -2.70650205      -0.03352870       0.00000000
