10
Lattice="16.28999089631971 0.0 0.0 0.0 16.28999089631971 0.0 0.0 0.0 34.5300574570662" Properties=species:S:1:pos:R:3:initial_magmoms:R:1 pbc="T T T"
Si      -1.38740301       1.31171967      -1.32623119       0.00000000
Si       1.35837423      -1.41410232      -1.30354493       0.00000000
Si      -1.49406993      -1.41209865       1.25064485       0.00000000
Si       0.96894549       0.22371057       2.19200380       0.00000000
Si      -0.90101619       1.62844614       2.70405031       0.00000000
Si       2.63720439       2.56064139       0.12682897       0.00000000
Si      -0.00791694       2.65346181      -2.66548021       0.00000000
Si      -2.75542092       2.59825500       0.02831466       0.00000000
Si      -0.07244163      -2.71932228       2.64500388       0.00000000
Si       2.70834282      -0.06419889      -2.66862245       0.00000000
