10
Lattice="16.28999089631971 0.0 0.0 0.0 16.28999089631971 0.0 0.0 0.0 34.5300574570662" Properties=species:S:1:pos:R:3:initial_magmoms:R:1 pbc="T T T"
Si       0.54556839      -1.92552687       1.32357237       0.00000000
Si       1.21878522       1.92821472       0.78894319       0.00000000
Si      -2.26183392       0.89415810      -0.13981228       0.00000000
Si       0.67719159      -0.86291388      -2.20864730       0.00000000
Si      -0.61414929      -0.26653698       2.77197826       0.00000000
Si      -1.51024590       3.00514662      -0.98244974       0.00000000
Si      -2.36467269       1.48467060       2.34835599       0.00000000
Si      -0.25444980      -3.66733512      -0.18183538       0.00000000
Si       1.50374619      -2.98840050      -1.69798199       0.00000000
Si      -1.31369076      -1.56465450      -3.32697290       0.00000000
