10
Lattice="16.28999089631971 0.0 0.0 0.0 16.28999089631971 0.0 0.0 0.0 34.5300574570662" Properties=species:S:1:pos:R:3:initial_magmoms:R:1 pbc="T T T"
Si       1.49332059      -1.11420342       1.44260791       0.00000000
Si       1.15009029       1.55745432      -1.39788597       0.00000000
Si      -1.23852870       1.58421879       1.41124424       0.00000000
Si      -0.67416165      -1.96061553      -1.61987983       0.00000000
Si       2.73408102      -2.55194253       0.05117012       0.00000000
Si       0.13996368      -2.47177944       2.80499208       0.00000000
Si      -0.58021722       2.75536132      -2.52104578       0.00000000
Si      -2.62501947      -2.75185341      -0.21813340       0.00000000
Si      -2.57681736       0.24653286       2.80088300       0.00000000
Si      -2.75807619       2.86558760      -0.05246500       0.00000000
