10
Lattice="16.28999089631971 0.0 0.0 0.0 16.28999089631971 0.0 0.0 0.0 34.5300574570662" Properties=species:S:1:pos:R:3:initial_magmoms:R:1 pbc="T T T"
Si       1.33284780       1.34903096       1.37560920       0.00000000
Si       1.35338949      -1.35964485      -1.35782621       0.00000000
Si      -1.35987291       1.35566750      -1.35782621       0.00000000
Si      -1.36588392      -1.35355239       1.36407615       0.00000000
Si      -0.22542102       2.47093955       2.86257789       0.00000000
Si       0.07192035      -2.62259226       2.77014088       0.00000000
Si       2.71282257      -0.00027615      -2.71527259       0.00000000
Si       2.71256193       2.71587599       0.00438532       0.00000000
Si      -0.00197109       2.71413296      -2.71513447       0.00000000
Si      -2.71482624       2.71633211       0.00031077       0.00000000
