10
Lattice="16.28999089631971 0.0 0.0 0.0 16.28999089631971 0.0 0.0 0.0 34.5300574570662" Properties=species:S:1:pos:R:3:initial_magmoms:R:1 pbc="T T T"
Si       1.75052340      -1.75120758       0.42362227       0.00000000
Si      -1.95085782      -0.79123788       1.40174643       0.00000000
Si       0.10283877      -0.59051250      -2.48816827       0.00000000
Si       0.67416165       1.96061553       1.61987983       0.00000000
Si      -0.57111111      -1.87732476       3.05706307       0.00000000
Si       2.36467269      -1.48467060      -2.34835599       0.00000000
Si       0.85442679       1.52047602      -3.33080573       0.00000000
Si       0.72904266      -3.32035812       1.76977490       0.00000000
Si       3.40824267      -0.59132700       1.67104996       0.00000000
Si       2.16748224       0.84641211       3.06248774       0.00000000
