10
Lattice="16.28999089631971 0.0 0.0 0.0 16.28999089631971 0.0 0.0 0.0 34.5300574570662" Properties=species:S:1:pos:R:3:initial_magmoms:R:1 pbc="T T T"
Si       1.36471823       1.34517933       1.39766701       0.00000000
Si      -1.35386190      -1.36522255       1.39483554       0.00000000
Si      -1.30750056       1.41613857      -1.52733781       0.00000000
Si       1.40922739      -1.43152610      -1.45067413       0.00000000
Si      -2.71104696       2.70259245       0.01020018       0.00000000
Si      -2.70145215      -2.72143088       0.00770711       0.00000000
Si       2.72175668       2.70542691       0.02108752       0.00000000
Si       2.72385809      -2.72990168       0.04007215       0.00000000
Si       0.00443088       2.70681156       2.75639100       0.00000000
Si      -2.71091664      -0.00731421       2.75670177       0.00000000
