10
Lattice="16.28999089631971 0.0 0.0 0.0 16.28999089631971 0.0 0.0 0.0 34.5300574570662" Properties=species:S:1:pos:R:3:initial_magmoms:R:1 pbc="T T T"
Si      -0.07879473      -0.43228773       2.35550372       0.00000000
Si       2.29223825       0.70364655      -0.40759303       0.00000000
Si      -0.82326402      -2.14736246      -0.84722996       0.00000000
Si      -1.54266300       1.77207507      -0.83997865       0.00000000
Si       2.57591231       1.69819992       1.83872659       0.00000000
Si      -2.34450567      -0.83973321       2.84859321       0.00000000
Si      -3.66277392       0.71607582      -0.87109025       0.00000000
Si       0.78189949       1.50487020       3.44157822       0.00000000
Si      -3.75147297      -0.83175111       0.93165600       0.00000000
Si       2.36920850       2.64503988      -1.89870533       0.00000000
