10
Lattice="16.28999089631971 0.0 0.0 0.0 16.28999089631971 0.0 0.0 0.0 34.5300574570662" Properties=species:S:1:pos:R:3:initial_magmoms:R:1 pbc="T T T"
Si       1.37975129      -1.84936365       0.68355740       0.00000000
Si      -2.29029255      -0.56267289       0.52375220       0.00000000
Si      -0.25096374      -0.65549005      -2.32770700       0.00000000
Si       0.82326402       2.14736246       0.84722996       0.00000000
Si      -2.92820895       1.31561135       1.77888596       0.00000000
Si       0.74446929       1.71507473       3.20273368       0.00000000
Si       0.41440131      -3.74796315      -0.34592231       0.00000000
Si       0.24581610      -2.95020927      -2.47570291       0.00000000
Si       3.38777333      -1.78550685      -0.54978788       0.00000000
Si      -2.54834244      -2.62141191       1.58399821       0.00000000
