10
Lattice="16.28999089631971 0.0 0.0 0.0 16.28999089631971 0.0 0.0 0.0 34.5300574570662" Properties=species:S:1:pos:R:3:initial_magmoms:R:1 pbc="T T T"
Si      -2.26571094      -0.40744548       0.49308950       0.00000000
Si       0.86069422       1.93715793       1.08607450       0.00000000
Si       1.39665966      -1.78999244       0.75617415       0.00000000
Si       0.07879473       0.43228773      -2.35550372       0.00000000
Si       2.65470704       2.13048765      -0.51677713       0.00000000
Si      -0.74446929      -1.71507473      -3.20273368       0.00000000
Si      -2.29431618      -2.55684582       1.45302563       0.00000000
Si      -2.82005964       1.09455768       2.19210739       0.00000000
Si       1.17784912      -1.77979327       3.15549653       0.00000000
Si       2.37103298       1.13593428      -2.76309674       0.00000000
