10
Lattice="16.28999089631971 0.0 0.0 0.0 16.28999089631971 0.0 0.0 0.0 34.5300574570662" Properties=species:S:1:pos:R:3:initial_magmoms:R:1 pbc="T T T"
Si       0.33386355      -2.38247507      -0.14733984       0.00000000
Si       2.15157898       0.69151864       0.86280303       0.00000000
Si      -0.78118695       0.87069561      -2.15246686       0.00000000
Si      -1.90926945       0.23925775       1.54760351       0.00000000
Si      -3.45307275       1.50364193       0.31712422       0.00000000
Si       0.35554554      -0.35392143      -3.80189957       0.00000000
Si       3.26019330      -1.24628015       1.69670438       0.00000000
Si       2.69483256      -2.82412955      -0.18680772       0.00000000
Si      -0.87003261      -3.33363188      -1.99442270       0.00000000
Si       3.17178585       2.35749857      -0.54602410       0.00000000
