10
Lattice="16.28999089631971 0.0 0.0 0.0 16.28999089631971 0.0 0.0 0.0 34.5300574570662" Properties=species:S:1:pos:R:3:initial_magmoms:R:1 pbc="T T T"
Si      -0.68839911       1.45767807       1.69749857       0.00000000
Si       2.32777814      -0.35580618       0.16716010       0.00000000
Si      -0.57274011      -2.18232080       0.74719633       0.00000000
Si      -1.35179307       0.51730524      -2.03786154       0.00000000
Si      -2.80813536      -2.06659338      -0.00676790       0.00000000
Si       0.56399238      -3.40693784      -0.90223638       0.00000000
Si      -3.43231929      -0.22367799      -1.28659066       0.00000000
Si       2.64611569      -2.35704571      -1.07447240       0.00000000
Si       3.29521029       1.41907077      -0.93497089       0.00000000
Si      -1.18175805       3.55512960       0.74878471       0.00000000
