10
Lattice="16.28999089631971 0.0 0.0 0.0 16.28999089631971 0.0 0.0 0.0 34.5300574570662" Properties=species:S:1:pos:R:3:initial_magmoms:R:1 pbc="T T T"
Si       1.32653542       1.21293711      -1.61407391       0.00000000
Si       0.93958276      -2.05066665       1.08900956       0.00000000
Si      -1.41885410      -1.38391695      -1.58921225       0.00000000
Si      -1.11272917       2.05684056       1.41234920       0.00000000
Si      -1.08812150      -3.36209636       0.73680278       0.00000000
Si       2.35098094       1.93406283       1.99804836       0.00000000
Si       2.48121949       2.77770564      -0.30130945       0.00000000
Si      -2.86049046       2.66747121      -0.17931469       0.00000000
Si       0.52943315       1.89495054       3.50742708       0.00000000
Si      -0.06727118       2.59983513      -3.07680249       0.00000000
