10
Lattice="16.28999089631971 0.0 0.0 0.0 16.28999089631971 0.0 0.0 0.0 34.5300574570662" Properties=species:S:1:pos:R:3:initial_magmoms:R:1 pbc="T T T"
Si       1.32768387       1.33055091      -1.49532497       0.00000000
Si      -1.22121243      -1.40561523      -1.54345990       0.00000000
Si       1.74776129      -0.61063065       1.59166389       0.00000000
Si      -0.64783701       2.55135609       0.58880687       0.00000000
Si      -0.50466420      -1.51571934       2.26320482       0.00000000
Si      -3.01852071       1.57284837       0.56902113       0.00000000
Si       2.24929292       1.93629456       1.81818119       0.00000000
Si      -2.84785038      -0.04238658       2.54724923       0.00000000
Si       2.86049046      -2.66747121       0.17931469       0.00000000
Si       2.15095345       3.27368727      -0.22848552       0.00000000
