10
Lattice="16.28999089631971 0.0 0.0 0.0 16.28999089631971 0.0 0.0 0.0 34.5300574570662" Properties=species:S:1:pos:R:3:initial_magmoms:R:1 pbc="T T T"
Si       1.31396769      -1.38339567      -1.38607181       0.00000000
Si      -1.40787954       1.34065071      -1.38306769       0.00000000
Si      -1.56149424      -1.36940256       1.18969926       0.00000000
Si       1.22121243       1.40561523       1.54345990       0.00000000
Si      -0.18709065      -2.24222076       2.91596139       0.00000000
Si       2.54889630       2.73616614       0.04813493       0.00000000
Si       2.66284879      -2.64577293       0.13356234       0.00000000
Si       2.65583717      -0.02389743      -2.74279306       0.00000000
Si      -2.83869540       0.03543075       2.56548111       0.00000000
Si      -0.05791095       2.69055414      -2.74814522       0.00000000
