10
Lattice="16.28999089631971 0.0 0.0 0.0 16.28999089631971 0.0 0.0 0.0 34.5300574570662" Properties=species:S:1:pos:R:3:initial_magmoms:R:1 pbc="T T T"
Si       1.02384279       2.04237504      -0.73155421       0.00000000
Si      -0.09835902       0.14162526       2.40388035       0.00000000
Si      -2.23508574       0.33490611      -0.86069669       0.00000000
Si       0.79731405      -2.16075447      -0.94978429       0.00000000
Si      -1.52858844      -0.55765557      -3.14800351       0.00000000
Si      -1.32279687      -3.21675372      -0.98089589       0.00000000
Si      -0.02161683       3.76080714       0.63134792       0.00000000
Si      -3.26840931      -1.76192640      -0.96760181       0.00000000
Si       0.01888011       2.70029556      -2.83277844       0.00000000
Si       1.87944246      -0.41477598       3.54264775       0.00000000
