10
Lattice="16.28999089631971 0.0 0.0 0.0 16.28999089631971 0.0 0.0 0.0 34.5300574570662" Properties=species:S:1:pos:R:3:initial_magmoms:R:1 pbc="T T T"
Si       1.48680689       1.12961376       1.45721900       0.00000000
Si      -1.25248923      -1.55448954       1.34282431       0.00000000
Si      -1.43953101       1.32022305      -1.56089759       0.00000000
Si       0.90072853       0.62037207      -2.98982123       0.00000000
Si      -2.88929214      -1.01538828      -1.64919100       0.00000000
Si      -1.14733728      -0.48262383      -3.41526630       0.00000000
Si       0.06722570       2.45221515       2.88545894       0.00000000
Si      -2.78835930       2.63274093       0.05959891       0.00000000
Si       3.19351508       2.27959002       0.16522642       0.00000000
Si      -2.65603563      -0.26803566       2.88036230       0.00000000
