10
Lattice="16.28999089631971 0.0 0.0 0.0 16.28999089631971 0.0 0.0 0.0 34.5300574570662" Properties=species:S:1:pos:R:3:initial_magmoms:R:1 pbc="T T T"
Si       1.35457119      -1.35773892      -1.36252230       0.00000000
Si      -1.36011726       1.36062225      -1.36165905       0.00000000
Si      -1.38779397      -1.35009891       1.35195610       0.00000000
Si       1.37663110       1.36576989       1.37357192       0.00000000
Si      -0.06317262       2.70330921       2.71251018       0.00000000
Si       2.70859436      -2.70997182      -0.00272788       0.00000000
Si       2.71499633       2.71458189      -0.00783833       0.00000000
Si      -2.71705797      -2.71334385      -0.00780380       0.00000000
Si      -2.71669959       2.71378368      -0.00321130       0.00000000
Si       2.71300895       0.00210141      -2.71965791       0.00000000
