10
Lattice="16.28999089631971 0.0 0.0 0.0 16.28999089631971 0.0 0.0 0.0 34.5300574570662" Properties=species:S:1:pos:R:3:initial_magmoms:R:1 pbc="T T T"
Si      -0.91383642       0.32983992      -2.10982222       0.00000000
Si       1.34992202      -1.92586896       0.00131214       0.00000000
Si      -1.73434743      -0.47504898       1.55216148       0.00000000
Si       1.13179892       1.88569782       0.95561987       0.00000000
Si      -0.60062859       1.48836843       2.59749049       0.00000000
Si       3.38330987      -0.75290751      -0.45811053       0.00000000
Si       0.79504552      -2.73862593      -2.17152747       0.00000000
Si       3.30107795       0.95579946       1.22512712       0.00000000
Si       0.86784553       1.34866539      -3.31837491       0.00000000
Si      -2.99064852       1.39036779      -1.64777526       0.00000000
