10
Lattice="16.28999089631971 0.0 0.0 0.0 16.28999089631971 0.0 0.0 0.0 34.5300574570662" Properties=species:S:1:pos:R:3:initial_magmoms:R:1 pbc="T T T"
Si       1.35658233      -1.35316143      -1.35844775       0.00000000
Si      -1.35995436       1.35892809      -1.35872399       0.00000000
Si      -1.36243044      -1.34470692       1.37132747       0.00000000
Si       1.34060184       1.37028222       1.36835788       0.00000000
Si       2.65352697      -0.01047447       2.71572148       0.00000000
Si      -2.64142350       0.09598068       2.76924310       0.00000000
Si      -2.71661814      -2.70946683      -0.00145026       0.00000000
Si      -0.00009774      -2.71199178      -2.71644661       0.00000000
Si       2.71669959      -2.71378368       0.00321130       0.00000000
Si      -2.71334385       2.71857294      -0.00089778       0.00000000
