10
Lattice="16.28999089631971 0.0 0.0 0.0 16.28999089631971 0.0 0.0 0.0 34.5300574570662" Properties=species:S:1:pos:R:3:initial_magmoms:R:1 pbc="T T T"
Si       1.55543436       1.39440771       1.07098486       0.00000000
Si      -1.48229226       1.63458747      -1.04695193       0.00000000
Si      -1.27259109      -0.99250083       1.86738655       0.00000000
Si       1.43536077      -1.37901366      -1.48855708       0.00000000
Si      -0.18821466      -3.16488636       1.67094494       0.00000000
Si      -0.23809464      -2.47067172      -2.68768305       0.00000000
Si       1.72401957       0.59665383       3.20076546       0.00000000
Si       2.48692914       0.32114106      -2.76282050       0.00000000
Si      -0.38089278      -0.10671579       3.85749299       0.00000000
Si       0.46433016      -3.82909482      -0.60272249       0.00000000
