10
Lattice="16.28999089631971 0.0 0.0 0.0 16.28999089631971 0.0 0.0 0.0 34.5300574570662" Properties=species:S:1:pos:R:3:initial_magmoms:R:1 pbc="T T T"
Si      -1.20389616      -0.95115681      -1.84708287       0.00000000
Si       2.36096901      -0.44165448      -0.03946788       0.00000000
Si      -0.33386355       2.38247507       0.14733984       0.00000000
Si      -0.26487540      -1.07878896       2.22259745       0.00000000
Si       0.17376543      -0.32182524      -3.60628669       0.00000000
Si       2.92632975       1.13619492       1.84404422       0.00000000
Si       1.81771543       3.07399372       1.01014287       0.00000000
Si       2.52190607      -2.77092900       0.48314483       0.00000000
Si      -2.24313300       2.62173282       1.69494335       0.00000000
Si      -2.59535538      -1.26930051       2.54628239       0.00000000
