10
Lattice="16.28999089631971 0.0 0.0 0.0 16.28999089631971 0.0 0.0 0.0 34.5300574570662" Properties=species:S:1:pos:R:3:initial_magmoms:R:1 pbc="T T T"
Si       0.56347110       1.98920448       1.03776693       0.00000000
Si      -1.52825775      -1.06517052       1.44242490       0.00000000
Si       2.08476162      -1.00421334      -0.47012700       0.00000000
Si      -1.26356480       0.17117532      -2.01500263       0.00000000
Si      -0.96051053      -3.10534641       0.39913316       0.00000000
Si      -1.45545774       3.02212080       0.29557746       0.00000000
Si       1.06000659       0.92054790       3.15584183       0.00000000
Si       1.36539522      -3.20194611       0.09941209       0.00000000
Si       2.28968982      -0.01036044      -2.67138486       0.00000000
Si      -1.67040103       2.46982464      -2.03088646       0.00000000
