10
Lattice="16.28999089631971 0.0 0.0 0.0 16.28999089631971 0.0 0.0 0.0 34.5300574570662" Properties=species:S:1:pos:R:3:initial_magmoms:R:1 pbc="T T T"
Si      -1.34992202       1.92586896      -0.00131214       0.00000000
Si      -0.47840146      -1.54518795       1.74169707       0.00000000
Si      -0.55487650      -0.81275697      -2.17283961       0.00000000
Si       2.03338785       1.17296145      -0.45942267       0.00000000
Si       1.26809994      -3.18234924       1.30092064       0.00000000
Si       1.95115593       2.88166842       1.22381498       0.00000000
Si      -3.08426945       1.45081998       1.55084934       0.00000000
Si       1.53685236       2.24161803      -2.57749758       0.00000000
Si       0.97338126       0.25241355      -3.61526451       0.00000000
Si      -2.26375844       2.25570888      -2.11113436       0.00000000
