10
Lattice="16.28999089631971 0.0 0.0 0.0 16.28999089631971 0.0 0.0 0.0 34.5300574570662" Properties=species:S:1:pos:R:3:initial_magmoms:R:1 pbc="T T T"
Si       1.87478352      -1.24271523      -0.74678197       0.00000000
Si      -0.47350143      -1.73998377       1.62180730       0.00000000
Si      -1.14578973       0.48736422      -2.21572597       0.00000000
Si       1.25015976       2.13519546       1.01318151       0.00000000
Si       0.59052879       0.08485461       2.80081191       0.00000000
Si       2.68125255       0.68010750      -1.76369273       0.00000000
Si       0.98389971       1.12329324      -3.30787776       0.00000000
Si       0.98230329      -2.83712830      -2.40429471       0.00000000
Si      -2.89229113       2.12452551      -1.77494954       0.00000000
Si      -0.59950458       3.78374346       1.38009811       0.00000000
