10
Lattice="16.28999089631971 0.0 0.0 0.0 16.28999089631971 0.0 0.0 0.0 34.5300574570662" Properties=species:S:1:pos:R:3:initial_magmoms:R:1 pbc="T T T"
Si      -1.74650140       1.63716129       0.44077643       0.00000000
Si      -1.17020681      -1.78517223      -1.22844201       0.00000000
Si       2.12968944       0.63592902      -1.09215180       0.00000000
Si       1.14578973      -0.48736422       2.21572597       0.00000000
Si       0.78928308      -2.71060713      -2.07183914       0.00000000
Si      -1.26809994       3.18234924      -1.30092064       0.00000000
Si       2.09142423      -0.91466721      -2.98868173       0.00000000
Si       3.02057325      -1.73007945       1.46894400       0.00000000
Si      -3.79456721       0.53416539       0.01533135       0.00000000
Si       3.82704228       0.19274328       0.45203323       0.00000000
