10
Lattice="16.28999089631971 0.0 0.0 0.0 16.28999089631971 0.0 0.0 0.0 34.5300574570662" Properties=species:S:1:pos:R:3:initial_magmoms:R:1 pbc="T T T"
Si      -1.70670819      -1.14997626       1.29199258       0.00000000
Si       1.12842459       1.63491327       1.43416327       0.00000000
Si      -0.29149326       2.10520557      -1.29446352       0.00000000
Si       1.84966434      -1.64854800      -0.36691660       0.00000000
Si       2.38542615       2.37221496      -0.39709588       0.00000000
Si       2.31695928       0.16483851       2.76192069       0.00000000
Si      -2.64611502       2.61478935      -0.31746953       0.00000000
Si      -0.41674707      -2.54479122       2.72602322       0.00000000
Si       3.50736732       0.40389426      -1.40330232       0.00000000
Si      -3.19351508      -2.27959002      -0.16522642       0.00000000
