10
Lattice="16.28999089631971 0.0 0.0 0.0 16.28999089631971 0.0 0.0 0.0 34.5300574570662" Properties=species:S:1:pos:R:3:initial_magmoms:R:1 pbc="T T T"
Si       1.27400832      -1.38205989      -1.54131904       0.00000000
Si      -1.38860358       1.32879159      -1.52484819       0.00000000
Si      -2.05221583      -0.76157379       1.15689569       0.00000000
Si       2.02737195       0.80892882       1.48938580       0.00000000
Si       2.61128700      -2.73724128      -0.22517063       0.00000000
Si       2.75978664       2.61710253      -0.04951613       0.00000000
Si      -2.82840731       2.66633091      -0.18590993       0.00000000
Si      -0.85437792       1.51575192       3.50183320       0.00000000
Si       2.66014071      -0.03269403      -2.90246013       0.00000000
Si      -2.87548541      -2.70471015      -0.10994376       0.00000000
