10
Lattice="16.28999089631971 0.0 0.0 0.0 16.28999089631971 0.0 0.0 0.0 34.5300574570662" Properties=species:S:1:pos:R:3:initial_magmoms:R:1 pbc="T T T"
Si       2.16927903      -0.92989836       0.26950725       0.00000000
Si      -0.16093706       2.32927452      -0.52261271       0.00000000
Si      -1.13179892      -1.88569782      -0.95561987       0.00000000
Si      -1.73242751      -0.39732939       1.64187062       0.00000000
Si       1.74101493      -1.59233121       2.64797347       0.00000000
Si      -2.78678147       1.69214004       1.73945262       0.00000000
Si       2.25151095      -2.63860533      -1.41373040       0.00000000
Si      -2.86614635      -2.36074680       0.59654161       0.00000000
Si      -2.52190607       2.77092900      -0.48314483       0.00000000
Si      -0.61360683      -1.08274743       3.62496746       0.00000000
