10
Lattice="16.28999089631971 0.0 0.0 0.0 16.28999089631971 0.0 0.0 0.0 34.5300574570662" Properties=species:S:1:pos:R:3:initial_magmoms:R:1 pbc="T T T"
Si       1.35648459      -1.35721764      -1.35665219       0.00000000
Si      -1.35704659       1.35647386      -1.35727373       0.00000000
Si      -1.35608711      -1.35799956       1.35772262       0.00000000
Si       1.35786924       1.35768095       1.35810245       0.00000000
Si       0.00047241       2.71427957      -2.71371873       0.00000000
Si       2.71438641      -0.00064454      -2.71416762       0.00000000
Si      -2.71416554      -0.00146610      -2.71485822       0.00000000
Si      -2.71444511       2.71486601       0.00110496       0.00000000
Si      -0.00026064      -2.71480995      -2.71496181       0.00000000
Si      -2.71428660      -2.71557558       0.00010359       0.00000000
