10
Lattice="16.28999089631971 0.0 0.0 0.0 16.28999089631971 0.0 0.0 0.0 34.5300574570662" Properties=species:S:1:pos:R:3:initial_magmoms:R:1 pbc="T T T"
Si       1.35608711       1.35799956      -1.35772262       0.00000000
Si       1.35838400      -1.35977517       1.35468397       0.00000000
Si      -1.35819948      -1.35757602      -1.35761903       0.00000000
Si      -1.35944678       1.36060596       1.36145187       0.00000000
Si       2.71257170       0.00078192      -2.71437480       0.00000000
Si       2.71315814      -2.71384884      -0.00013812       0.00000000
Si      -0.00117777      -2.71437012      -2.71465104       0.00000000
Si      -0.00095948       2.71447342      -2.71499634       0.00000000
Si      -2.71635491       2.71318325       0.00065607       0.00000000
Si       2.71395635       2.71568051       0.00037983       0.00000000
