10
Lattice="10.86 0.0 0.0 0.0 10.86 0.0 0.0 0.0 10.86" Properties=species:S:1:pos:R:3:initial_magmoms:R:1 pbc="T T T"
Si      -1.37371398       1.17403116       1.34075388       0.00000000
Si       1.34128602       1.17403116      -1.37424612       0.00000000
Si       1.34128602      -1.54096884       1.34075388       0.00000000
Si      -2.46018096      -0.33607356      -2.52874014       0.00000000
Si      -0.01621398       2.53153116       2.69825388       0.00000000
Si       2.69878602       2.53153116      -0.01674612       0.00000000
Si      -2.73121398       2.53153116      -0.01674612       0.00000000
Si      -0.01621398       2.53153116      -2.73174612       0.00000000
Si      -0.09199506      -2.77259058      -2.58798144       0.00000000
Si       2.69878602      -0.18346884       2.69825388       0.00000000
