10
Lattice="16.290000149 0.0 0.0 0.0 16.290000149 0.0 0.0 0.0 29.1751946751" Properties=species:S:1:pos:R:3:initial_magmoms:R:1 pbc="T T T"
Si      -1.36842517       1.38706093       1.31192098       0.00000000
Si      -1.36031275      -1.34615674      -1.36662447       0.00000000
Si       1.35306370       1.34731333      -1.37485187       0.00000000
Si       1.34535853      -1.33582888       1.40601098       0.00000000
Si       0.01467729       2.73517248       2.65415499       0.00000000
Si       2.66949119      -2.73044349       0.04265413       0.00000000
Si      -2.69532713      -2.71044914       0.00236319       0.00000000
Si      -0.06620256      -2.61849372       2.78850676       0.00000000
Si      -0.01027899      -2.69562035      -2.73990088       0.00000000
Si       2.72699489       2.71093295      -0.04425877       0.00000000
