10
Lattice="16.290000149 0.0 0.0 0.0 16.290000149 0.0 0.0 0.0 29.1751946751" Properties=species:S:1:pos:R:3:initial_magmoms:R:1 pbc="T T T"
Si      -1.35619138       1.37055916       1.26792479       0.00000000
Si      -1.42081381      -1.30974859      -1.31346726       0.00000000
Si       1.33804432       1.44765973      -1.25505852       0.00000000
Si       1.29311650      -1.30416112       1.46561590       0.00000000
Si      -2.78549229       0.05007546       2.49179503       0.00000000
Si       2.68192046       0.08221563      -2.60563664       0.00000000
Si      -0.04122999      -2.65645919      -2.63434503       0.00000000
Si       2.67905342      -2.64616391       0.12848756       0.00000000
Si      -0.04945644       2.79002091      -2.60251489       0.00000000
Si      -0.11012040       2.49002426       2.89400426       0.00000000
