10
Lattice="16.290000149 0.0 0.0 0.0 16.290000149 0.0 0.0 0.0 29.1751946751" Properties=species:S:1:pos:R:3:initial_magmoms:R:1 pbc="T T T"
Si       1.32789565       1.37989333      -1.37879636       0.00000000
Si       1.34687350      -1.36205578       1.37816909       0.00000000
Si      -1.36456444       1.34796493       1.39060940       0.00000000
Si      -1.39211083      -1.37873674      -1.33868047       0.00000000
Si       2.53079813      -0.08576685      -2.81669583       0.00000000
Si      -2.64966626      -2.74765062       0.08667367       0.00000000
Si      -0.07605801       2.80587108      -2.59554785       0.00000000
Si      -2.84773638       0.03712491      -2.55350640       0.00000000
Si       2.71911053       0.04398300       2.69035557       0.00000000
Si       2.63179613       2.82717840      -0.00363815       0.00000000
