10
Lattice="16.290000149 0.0 0.0 0.0 16.290000149 0.0 0.0 0.0 29.1751946751" Properties=species:S:1:pos:R:3:initial_magmoms:R:1 pbc="T T T"
Si       1.06813531      -1.41441184      -1.51112921       0.00000000
Si      -1.54675180       1.32196609      -1.18827650       0.00000000
Si      -1.05526621      -1.76366945       1.18343342       0.00000000
Si       2.12853287       0.97450039       0.67082525       0.00000000
Si       0.21605427       0.81324568       3.38724010       0.00000000
Si       2.33367284      -2.73613359      -0.09581134       0.00000000
Si      -0.20742057       2.70200603      -2.50349428       0.00000000
Si       2.49743621      -0.09392814      -2.73499945       0.00000000
Si      -1.40291110      -0.87728167       3.31783231       0.00000000
H        3.16609185      -1.85417669       0.77681873       0.00000000
