10
Lattice="16.290000149 0.0 0.0 0.0 16.290000149 0.0 0.0 0.0 29.1751946751" Properties=species:S:1:pos:R:3:initial_magmoms:R:1 pbc="T T T"
Si       1.16403454       0.23395698      -2.01609348       0.00000000
Si       1.57333708       0.76895317       1.58427142       0.00000000
Si      -0.90675028      -1.87002686       1.12677519       0.00000000
Si      -1.93548008       1.47075895      -0.34534678       0.00000000
Si      -1.94066030      -0.39356640       2.60977951       0.00000000
H       -2.81732295       0.45755352       1.71092094       0.00000000
Si      -0.04816953       0.91083907       3.25221730       0.00000000
H        1.83617624      -2.88043041      -0.25166523       0.00000000
Si       2.39897945       2.71941679       0.58907636       0.00000000
Si       2.69508278       2.03802563      -1.61858145       0.00000000
