10
Lattice="16.290000149 0.0 0.0 0.0 16.290000149 0.0 0.0 0.0 29.1751946751" Properties=species:S:1:pos:R:3:initial_magmoms:R:1 pbc="T T T"
Si      -1.41092741       1.42196063      -1.15160328       0.00000000
Si       1.50403942      -1.29583693      -1.20796976       0.00000000
Si       0.82862344       1.64991638       1.41272128       0.00000000
Si      -0.91264726      -1.71364286       1.28665526       0.00000000
H        0.21273111       2.95218786       0.96806213       0.00000000
Si       2.53247600      -2.12131640       0.74971498       0.00000000
Si       0.08558766      -2.68951160      -2.50582830       0.00000000
Si      -2.65069253       0.05391371      -2.58816069       0.00000000
Si      -0.00084708       2.71472852      -2.53856286       0.00000000
Si       0.07196922       1.05607419       3.56497539       0.00000000
