10
Lattice="16.290000149 0.0 0.0 0.0 16.290000149 0.0 0.0 0.0 29.1751946751" Properties=species:S:1:pos:R:3:initial_magmoms:R:1 pbc="T T T"
Si       1.08348049       1.06161931      -0.13487693       0.00000000
H       -0.46942893       1.50625486       1.83226058       0.00000000
Si      -2.17059365      -0.96010003      -1.00744865       0.00000000
Si      -0.90191215       0.23296329       2.53602462       0.00000000
Si      -0.43914582      -2.57150684      -1.27326385       0.00000000
Si       1.10838790      -1.15981543       2.48633927       0.00000000
Si      -0.10410939      -2.76094326       1.08922672       0.00000000
Si       2.58243418      -0.00400734      -1.55885983       0.00000000
H       -1.09517671       2.12232638      -1.91433040       0.00000000
Si       2.26598626       0.88858693       1.88416325       0.00000000
