10
Lattice="16.290000149 0.0 0.0 0.0 16.290000149 0.0 0.0 0.0 29.1751946751" Properties=species:S:1:pos:R:3:initial_magmoms:R:1 pbc="T T T"
H       -1.08348049      -1.06161931       0.13487693       0.00000000
Si       1.49895369      -1.06562665      -1.42398290       0.00000000
Si       1.18250577      -0.17303238       2.01904017       0.00000000
Si      -1.00853020       1.91392841      -0.91082040       0.00000000
H       -1.55290942       0.44463555       1.96713750       0.00000000
H       -2.17865720       1.06070707      -1.77945347       0.00000000
Si      -1.98539264      -0.82865602       2.67090155       0.00000000
Si       0.02490741      -2.22143474       2.62121619       0.00000000
Si       0.11712510      -2.55293624      -2.56432456       0.00000000
Si      -2.68095935      -0.36724176      -2.49792182       0.00000000
