10
Lattice="16.290000149 0.0 0.0 0.0 16.290000149 0.0 0.0 0.0 29.1751946751" Properties=species:S:1:pos:R:3:initial_magmoms:R:1 pbc="T T T"
H       -0.15869718       0.79578280       1.27527693       0.00000000
Si       1.07916364       1.16628256      -1.70826600       0.00000000
Si      -2.20981997       0.08042373      -0.80736516       0.00000000
Si       0.86068216      -2.08111268       0.78991840       0.00000000
H       -1.44189307      -1.87683608       1.71147527       0.00000000
H       -1.56501289       2.82957303       0.81279175       0.00000000
Si      -2.72288981      -1.91980910       0.89206075       0.00000000
Si       1.95247055      -0.61849873      -2.99001983       0.00000000
Si       0.71866594      -1.66807973       3.14884959       0.00000000
Si      -3.51916457       0.33821298       1.10521472       0.00000000
