10
Lattice="16.290000149 0.0 0.0 0.0 16.290000149 0.0 0.0 0.0 29.1751946751" Properties=species:S:1:pos:R:3:initial_magmoms:R:1 pbc="T T T"
Si       1.35353611      -1.36700794       1.33779938       0.00000000
Si      -1.35614251      -1.36785502      -1.33712835       0.00000000
Si       1.37490859       1.33719724      -1.36087696       0.00000000
Si      -1.37784079       1.34682463       1.35542119       0.00000000
Si       2.64753227       0.07025877       2.64972036       0.00000000
Si       0.02777445      -2.72258193      -2.67160175       0.00000000
Si      -2.68393391      -0.00767259      -2.71262208       0.00000000
Si      -2.70545789       2.70451469      -0.01213688       0.00000000
Si       0.03235194       2.71914311      -2.70614518       0.00000000
Si      -2.70252731      -2.72387210       0.03792775       0.00000000
