10
Lattice="16.290000149 0.0 0.0 0.0 16.290000149 0.0 0.0 0.0 29.1751946751" Properties=species:S:1:pos:R:3:initial_magmoms:R:1 pbc="T T T"
Si       1.36788760       1.35799957       1.32895929       0.00000000
Si       1.37021707      -1.35687556      -1.33301464       0.00000000
Si      -1.34255665       1.38194587      -1.34526823       0.00000000
Si      -1.37490859      -1.33719724       1.36087696       0.00000000
Si      -0.06933024       2.69289992       2.60989621       0.00000000
Si      -0.00285075      -2.70441695      -2.67606556       0.00000000
Si      -2.69140124       0.02062314      -2.69540871       0.00000000
Si      -0.02137248      -2.70420518       2.69867633       0.00000000
Si       2.71972955       0.00783549      -2.68974872       0.00000000
Si       2.72122823       2.70985781      -0.03238447       0.00000000
