10
Lattice="16.290000149 0.0 0.0 0.0 16.290000149 0.0 0.0 0.0 29.1751946751" Properties=species:S:1:pos:R:3:initial_magmoms:R:1 pbc="T T T"
Si       1.43951473      -1.19519731      -1.36156549       0.00000000
Si      -1.34687513      -1.46105011       1.23257612       0.00000000
Si      -1.35684298       1.24046722      -1.45761023       0.00000000
Si       1.42638499       1.36006840       1.27925643       0.00000000
Si      -2.70606224      -0.00276930       2.52093521       0.00000000
Si       0.07806168      -2.53627157      -2.70829248       0.00000000
Si       0.09620874       2.67455738       2.69849545       0.00000000
Si      -2.52932030       2.83210270      -0.17060487       0.00000000
Si       2.75496483      -0.03546333       2.64854168       0.00000000
Si       2.72003906      -2.68675859      -0.01939392       0.00000000
