10
Lattice="16.290000149 0.0 0.0 0.0 16.290000149 0.0 0.0 0.0 29.1751946751" Properties=species:S:1:pos:R:3:initial_magmoms:R:1 pbc="T T T"
Si       1.38958588       1.43679430      -1.17648973       0.00000000
Si       1.70049683      -1.59857029       0.01432502       0.00000000
Si      -0.95809636       1.27337302       1.75097848       0.00000000
Si      -1.59247783      -0.81042751      -1.56419889       0.00000000
Si      -2.07453152       1.22142421      -2.61698579       0.00000000
Si      -0.18199188       2.71937117      -2.29153649       0.00000000
Si       0.63200314      -3.35766225      -1.05313700       0.00000000
Si      -2.41372190       2.68923467       0.53615255       0.00000000
Si      -0.29776491      -2.31296825      -2.88490160       0.00000000
Si       2.35473581      -2.01867311       2.14540086       0.00000000
