10
Lattice="16.290000149 0.0 0.0 0.0 16.290000149 0.0 0.0 0.0 29.1751946751" Properties=species:S:1:pos:R:3:initial_magmoms:R:1 pbc="T T T"
Si       0.80008336      -0.97417459      -1.95762639       0.00000000
Si      -1.33349941      -1.33149574       1.40601098       0.00000000
Si       1.58537539       1.12607884       1.35559625       0.00000000
Si      -1.51035994       1.30952053      -1.28295001       0.00000000
H        1.23256657       0.29911698      -2.66139043       0.00000000
H        0.67719160       1.86489551       2.32940589       0.00000000
Si      -2.54426996       2.78598099       0.20005431       0.00000000
Si      -1.08691768      -1.73130122      -3.18368477       0.00000000
Si      -2.90872614      -2.46104435      -0.04344186       0.00000000
Si      -2.53640189       0.13416444       2.84391045       0.00000000
