10
Lattice="16.290000149 0.0 0.0 0.0 16.290000149 0.0 0.0 0.0 29.1751946751" Properties=species:S:1:pos:R:3:initial_magmoms:R:1 pbc="T T T"
Si      -0.83458558       1.24291235      -1.71454450       0.00000000
Si      -1.83216890      -1.02291427       0.94084168       0.00000000
Si       1.04065408       1.85407895       0.95008146       0.00000000
Si       1.74563642      -1.54385218      -0.44550085       0.00000000
H       -1.01129950       2.63132372      -1.10621252       0.00000000
Si      -0.42578802      -2.38778822       2.19380834       0.00000000
Si       1.49216401      -1.03423582      -2.73967332       0.00000000
Si       2.45702072       0.51084512       2.20497077       0.00000000
Si       1.06132609       1.25548334      -3.05219800       0.00000000
Si       0.99663850      -0.92727568       3.41833502       0.00000000
