10
Lattice="16.290000149 0.0 0.0 0.0 16.290000149 0.0 0.0 0.0 29.1751946751" Properties=species:S:1:pos:R:3:initial_magmoms:R:1 pbc="T T T"
Si      -1.38593692       1.34200279       1.33712835       0.00000000
Si      -1.36436896      -1.33928236      -1.37421002       0.00000000
Si       1.34509789       1.37111302      -1.36332767       0.00000000
Si       1.34511418      -1.36821340       1.36790818       0.00000000
Si      -2.67905342       2.64616391      -0.12848756       0.00000000
Si       2.66403567      -2.70334181      -0.03886136       0.00000000
Si      -0.00661374       2.68366349       2.68796904       0.00000000
Si      -2.73186560      -0.04784373       2.68052936       0.00000000
Si       2.74101081       0.00622278       2.67953740       0.00000000
Si      -0.01773981      -2.68723100      -2.74153469       0.00000000
