10
Lattice="16.290000149 0.0 0.0 0.0 16.290000149 0.0 0.0 0.0 29.1751946751" Properties=species:S:1:pos:R:3:initial_magmoms:R:1 pbc="T T T"
Si      -0.50919608      -0.91341289      -2.09224074       0.00000000
Si       2.05731299       1.00476721       0.72249452       0.00000000
Si      -1.41910173       1.94662244       0.00306340       0.00000000
Si      -0.67810384      -1.76059064       1.51048735       0.00000000
H        1.44495559       1.57794715      -2.38466371       0.00000000
Si      -1.94228930      -0.33747993       2.83862624       0.00000000
H        2.85127131      -0.45584307      -1.92217853       0.00000000
Si       0.24158070       1.21347469      -3.26957654       0.00000000
Si       1.04941810       2.24676569       2.56339095       0.00000000
Si      -3.08320833       1.16120008       1.45461686       0.00000000
