10
Lattice="16.290000149 0.0 0.0 0.0 16.290000149 0.0 0.0 0.0 29.1751946751" Properties=species:S:1:pos:R:3:initial_magmoms:R:1 pbc="T T T"
Si      -1.34765922      -1.35371530       1.35775521       0.00000000
Si      -1.36836381       1.35602848      -1.34173803       0.00000000
Si       1.33017246      -1.34894233      -1.39156926       0.00000000
Si       1.31464646       1.36591651       1.39425338       0.00000000
Si       0.02995270       2.69145011      -2.67568628       0.00000000
Si       2.68062976      -2.70808220      -0.03165509       0.00000000
Si      -2.69153536       0.01172880       2.70833332       0.00000000
Si       2.68983361       2.71476110       0.04361692       0.00000000
Si      -2.71882111      -2.70109379       0.00186721       0.00000000
Si       2.70034066       0.01674612       2.72773483       0.00000000
