10
Lattice="16.290000149 0.0 0.0 0.0 16.290000149 0.0 0.0 0.0 29.1751946751" Properties=species:S:1:pos:R:3:initial_magmoms:R:1 pbc="T T T"
Si       1.44329401      -1.21744945      -1.28192888       0.00000000
Si       1.47896911       1.01494846       1.46815415       0.00000000
Si      -1.21834540       1.54121320      -1.23396486       0.00000000
Si      -1.11351925      -1.42814431       1.56239003       0.00000000
H        2.08810109      -2.05407128      -0.19914988       0.00000000
Si      -1.98682616       0.35663697       2.84414385       0.00000000
Si      -0.11639205       1.82263925       2.98704396       0.00000000
Si       2.47348991      -0.83069227       2.37363549       0.00000000
Si       0.00276930      -2.54614331      -2.49071554       0.00000000
Si       0.70724665      -2.31360356       2.70906270       0.00000000
