10
Lattice="16.290000149 0.0 0.0 0.0 16.290000149 0.0 0.0 0.0 29.1751946751" Properties=species:S:1:pos:R:3:initial_magmoms:R:1 pbc="T T T"
Si      -1.32274801      -1.32812371       1.36137643       0.00000000
Si       1.26418546      -1.42311070      -1.32813889       0.00000000
Si      -1.14091903       1.49868001      -1.38400938       0.00000000
Si       1.50654971       1.38541564       1.16347817       0.00000000
Si       1.94228930       0.33747993      -2.83862624       0.00000000
H       -2.32492511       0.95003281      -2.42550548       0.00000000
Si       0.52318756       2.28410237      -2.83556284       0.00000000
Si       0.10406052       2.73360863       2.53050818       0.00000000
Si       0.12794704      -2.71350677       2.58593229       0.00000000
Si      -2.58123197       0.07439643       2.72350792       0.00000000
