10
Lattice="16.290000149 0.0 0.0 0.0 16.290000149 0.0 0.0 0.0 29.1751946751" Properties=species:S:1:pos:R:3:initial_magmoms:R:1 pbc="T T T"
Si       0.84579310      -1.87637996      -1.11224595       0.00000000
Si       1.48988341       1.25143039       1.37453095       0.00000000
Si      -1.38745189       1.31481478      -1.43025557       0.00000000
Si      -1.31209435      -1.36863694       1.48224577       0.00000000
H        1.38367261      -1.61490916      -2.49424574       0.00000000
H        2.66517434       0.13183497      -2.08614312       0.00000000
Si       0.01097946       2.55131946       2.71574382       0.00000000
Si      -2.78904351       2.49574205       0.04563000       0.00000000
H       -0.20676897      -0.77792896      -3.66845980       0.00000000
Si       2.53493579      -2.80003926       0.20338028       0.00000000
