10
Lattice="16.290000149 0.0 0.0 0.0 16.290000149 0.0 0.0 0.0 29.1751946751" Properties=species:S:1:pos:R:3:initial_magmoms:R:1 pbc="T T T"
Si      -1.43397613       1.34649720      -1.26144789       0.00000000
Si      -1.37979559      -1.34351776       1.33511526       0.00000000
Si       1.34661286       1.38842929       1.33896638       0.00000000
Si       1.35371530      -1.32911740      -1.40148883       0.00000000
Si      -0.10076994       2.68692149      -2.58993163       0.00000000
Si      -0.01031157      -2.69182478       2.67606556       0.00000000
Si       2.70013268      -2.67415013      -0.03649817       0.00000000
Si       2.70661610       0.03350853       2.68980707       0.00000000
Si      -2.73083933       0.03301983       2.68359276       0.00000000
Si      -0.06871122      -2.78962995      -2.62601551       0.00000000
