10
Lattice="16.290000149 0.0 0.0 0.0 16.290000149 0.0 0.0 0.0 29.1751946751" Properties=species:S:1:pos:R:3:initial_magmoms:R:1 pbc="T T T"
Si       1.42205185       1.39644397       1.17339715       0.00000000
Si      -1.31784472       1.44129034      -1.27556869       0.00000000
Si       1.43993827      -1.32178690      -1.27647312       0.00000000
Si      -1.37982817      -1.33480261       1.34690204       0.00000000
Si       0.06222780      -2.66059685      -2.60989621       0.00000000
Si       2.68758938       0.07472223       2.58871502       0.00000000
Si      -2.66457161       0.07959294      -2.62366691       0.00000000
Si      -2.55961514       0.11974779       2.76009012       0.00000000
Si       0.00866628      -2.62707203       2.70626188       0.00000000
Si       0.07475481       2.80111440      -2.58416369       0.00000000
