10
Lattice="16.290000149 0.0 0.0 0.0 16.290000149 0.0 0.0 0.0 29.1751946751" Properties=species:S:1:pos:R:3:initial_magmoms:R:1 pbc="T T T"
Si       1.36000324      -1.35492076       1.35084069       0.00000000
Si      -1.36278883       1.36254448       1.34564750       0.00000000
Si       1.34978941       1.38813607      -1.33511526       0.00000000
Si      -1.34661286      -1.38842929      -1.33896638       0.00000000
Si      -2.78058900      -0.04193209      -2.60041428       0.00000000
Si       0.00074934      -2.71720460       2.69453345       0.00000000
Si       2.79290424       0.05610113      -2.61689826       0.00000000
Si      -0.00293220       2.70594821       2.70880012       0.00000000
Si      -0.02743236       2.72813520      -2.69424170       0.00000000
Si      -2.72769536       0.01500309       2.69540871       0.00000000
