10
Lattice="16.290000149 0.0 0.0 0.0 16.290000149 0.0 0.0 0.0 29.1751946751" Properties=species:S:1:pos:R:3:initial_magmoms:R:1 pbc="T T T"
Si      -1.31965291      -1.34099281      -1.39438758       0.00000000
Si       1.35516511       1.31439124      -1.39981125       0.00000000
Si      -1.37912770       1.35925390       1.33561124       0.00000000
Si       1.35250984      -1.36754551       1.35565460       0.00000000
Si       2.69964398       2.68407074      -0.03740260       0.00000000
Si      -2.69448168      -2.70210377      -0.03320137       0.00000000
Si      -0.01874979       2.71358822       2.68916522       0.00000000
Si       0.09927126      -2.72324819      -2.67840832       0.00000000
Si       2.69951366      -0.01053963       2.71758186       0.00000000
Si      -0.01943397       2.66569562      -2.76051316       0.00000000
