10
Lattice="16.290000149 0.0 0.0 0.0 16.290000149 0.0 0.0 0.0 29.1751946751" Properties=species:S:1:pos:R:3:initial_magmoms:R:1 pbc="T T T"
Si       1.36536265      -1.35433432      -1.31941900       0.00000000
Si      -1.18022517      -1.54137610       1.30532738       0.00000000
Si       1.54582327       1.30548061       1.19419907       0.00000000
Si      -1.02458562       1.56252052      -1.47489362       0.00000000
H        2.72650619      -0.78726313      -1.04400517       0.00000000
Si       0.14423166       2.48640788       2.67008464       0.00000000
Si       2.33746841       2.80405963      -0.51211219       0.00000000
Si      -1.40289644      -3.40728159      -0.12857508       0.00000000
Si       0.90834670      -3.56674440      -0.71870175       0.00000000
Si      -2.63197532      -0.32303070       2.65587632       0.00000000
