10
Lattice="16.290000149 0.0 0.0 0.0 16.290000149 0.0 0.0 0.0 29.1751946751" Properties=species:S:1:pos:R:3:initial_magmoms:R:1 pbc="T T T"
Si       1.83216890       1.02291427      -0.94084168       0.00000000
Si       1.40638087      -1.36487395       1.25296666       0.00000000
Si      -1.31983210       1.48909385       1.20782388       0.00000000
Si      -1.30363984      -1.18332190      -1.55374979       0.00000000
Si       0.99758332       2.26582662      -2.65538618       0.00000000
Si      -2.66965409       0.09368379       2.51784264       0.00000000
Si      -2.62552448      -2.58727556      -0.21275427       0.00000000
Si       0.05041755      -2.70480791       2.56802398       0.00000000
Si       2.74361070      -2.52025850      -0.30393843       0.00000000
Si       2.82880740       0.09563859       2.47749335       0.00000000
