10
Lattice="16.290000149 0.0 0.0 0.0 16.290000149 0.0 0.0 0.0 29.1751946751" Properties=species:S:1:pos:R:3:initial_magmoms:R:1 pbc="T T T"
Si      -1.33486044      -1.37720548      -1.34520988       0.00000000
Si       1.34380121      -1.35853714       1.36233572       0.00000000
Si       1.33106243       1.35762490      -1.38322515       0.00000000
Si      -1.38821101       1.36122499       1.32338683       0.00000000
Si      -2.66480945       0.03194469      -2.65622642       0.00000000
Si      -0.03658571       2.71415837       2.68502234       0.00000000
Si       2.69144034       2.71195922      -0.02967117       0.00000000
Si       2.69264580       0.00278559       2.71247620       0.00000000
Si       2.70264786      -2.71399547       0.00866503       0.00000000
Si      -2.71983707      -2.70886412       0.02299005       0.00000000
