10
Lattice="16.290000149 0.0 0.0 0.0 16.290000149 0.0 0.0 0.0 29.1751946751" Properties=species:S:1:pos:R:3:initial_magmoms:R:1 pbc="T T T"
Si       1.30538287      -1.42780222      -1.29875888       0.00000000
Si       1.41578020       1.29523420       1.34229352       0.00000000
Si      -1.29777544      -1.48512673       1.27383685       0.00000000
Si      -1.28052433       1.49156128      -1.34217157       0.00000000
Si       2.56650581       0.06015897      -2.62103705       0.00000000
Si      -2.68188788      -0.11386710       2.62470671       0.00000000
Si       0.03492576       2.65129526       2.66793560       0.00000000
Si      -2.64197738       0.15048702      -2.68889856       0.00000000
Si      -2.72003906       2.68675859       0.01939392       0.00000000
Si      -0.07398918      -2.45338805      -2.93353256       0.00000000
