10
Lattice="16.290000149 0.0 0.0 0.0 16.290000149 0.0 0.0 0.0 29.1751946751" Properties=species:S:1:pos:R:3:initial_magmoms:R:1 pbc="T T T"
Si      -1.49895369       1.06562665       1.42398290       0.00000000
Si      -1.38182858      -1.48730959      -1.14034166       0.00000000
Si       1.56006399      -1.07688304       1.37030054       0.00000000
Si       1.32509703       1.48690234      -1.25193678       0.00000000
H       -2.58243418       0.00400734       1.55885983       0.00000000
Si       1.99479523       0.73313146       2.85289641       0.00000000
Si      -0.31644791       0.89259427       3.44302307       0.00000000
Si      -2.63371510      -0.12338046      -2.56362436       0.00000000
Si       0.04451243      -2.70363503      -2.53220267       0.00000000
Si      -0.08345367       2.70304859      -2.63568709       0.00000000
