10
Lattice="16.290000149 0.0 0.0 0.0 16.290000149 0.0 0.0 0.0 29.1751946751" Properties=species:S:1:pos:R:3:initial_magmoms:R:1 pbc="T T T"
Si      -1.41578020      -1.29523420      -1.34229352       0.00000000
Si      -1.38085444       1.35606106       1.32564207       0.00000000
Si       1.32188464       1.40395366      -1.34099552       0.00000000
Si       1.37277460      -1.41219640       1.30306339       0.00000000
Si       2.62552448       2.58727556       0.21275427       0.00000000
Si       2.66128103       0.04570974      -2.68309386       0.00000000
Si      -0.11039733      -2.72303642      -2.64105241       0.00000000
Si      -2.73452087      -0.04163724       2.64546369       0.00000000
Si      -2.69630453       0.19632708      -2.68446510       0.00000000
Si      -0.04412961       2.68095935       2.73059691       0.00000000
