10
Lattice="16.290000149 0.0 0.0 0.0 16.290000149 0.0 0.0 0.0 29.1751946751" Properties=species:S:1:pos:R:3:initial_magmoms:R:1 pbc="T T T"
H        0.91008973      -0.89956639       0.80377661       0.00000000
Si       1.33825609       1.31409802      -1.39302802       0.00000000
Si      -1.13593429       1.42706917       1.46687044       0.00000000
Si      -1.31799133      -1.46108269      -1.28181218       0.00000000
H       -1.10441314      -1.22362336       2.22481282       0.00000000
Si      -2.56076685       2.63031374       0.07559293       0.00000000
Si      -0.48852081      -2.52589484       2.66947196       0.00000000
Si      -2.66278297      -0.12663846      -2.65952322       0.00000000
Si      -0.01275507       2.67475286      -2.69631314       0.00000000
Si       2.72012051       2.66548385      -0.09683247       0.00000000
