10
Lattice="16.290000149 0.0 0.0 0.0 16.290000149 0.0 0.0 0.0 29.1751946751" Properties=species:S:1:pos:R:3:initial_magmoms:R:1 pbc="T T T"
Si       1.34667802       1.33302700       1.38865174       0.00000000
Si       1.33011109      -1.43927038      -1.31526154       0.00000000
Si      -1.34136748      -1.41806080       1.36000170       0.00000000
Si      -1.42868188       1.36513459      -1.33399201       0.00000000
H        0.48101112       1.64858060      -3.22365479       0.00000000
Si      -2.76591171       2.52051914       0.22291307       0.00000000
Si       2.65030157       2.68687262      -0.04477225       0.00000000
Si      -0.06639804      -2.75822283      -2.68187142       0.00000000
Si      -2.73258237      -0.08215047      -2.70915023       0.00000000
Si       2.69477327      -0.05132979       2.75119168       0.00000000
