10
Lattice="16.290000149 0.0 0.0 0.0 16.290000149 0.0 0.0 0.0 29.1751946751" Properties=species:S:1:pos:R:3:initial_magmoms:R:1 pbc="T T T"
Si      -0.12645927       2.30330502       0.24084123       0.00000000
Si       1.61497432       0.05103657      -1.77974523       0.00000000
Si       0.28419534      -0.86587867       2.24190948       0.00000000
Si      -2.12853287      -0.97450039      -0.67082525       0.00000000
H        1.03755898      -2.82867708       0.10599348       0.00000000
H        2.37944774      -1.82268812       0.56614465       0.00000000
Si      -1.87242149       1.98057569       1.73364842       0.00000000
Si      -1.91247860      -0.16125471       2.71641485       0.00000000
Si       3.17273817      -1.03141765      -0.44063297       0.00000000
Si      -1.06039756      -2.38891223      -2.18195446       0.00000000
