10
Lattice="16.290000149 0.0 0.0 0.0 16.290000149 0.0 0.0 0.0 29.1751946751" Properties=species:S:1:pos:R:3:initial_magmoms:R:1 pbc="T T T"
Si       1.35915616       1.36270738      -1.34421792       0.00000000
Si      -1.36557442      -1.35516511      -1.34669781       0.00000000
Si       1.35032698      -1.37573938       1.34348854       0.00000000
Si      -1.37647243       1.36445041       1.32971785       0.00000000
Si      -0.02570562       2.70080057      -2.69316222       0.00000000
Si       2.72860761      -0.01655064      -2.66614599       0.00000000
Si       0.00360009      -2.71860554      -2.68312595       0.00000000
Si      -0.02974554       2.72614781       2.67781607       0.00000000
Si       2.72803745      -0.03692943       2.67691164       0.00000000
Si      -2.71345790      -2.70365132       0.03060478       0.00000000
