10
Lattice="16.290000149 0.0 0.0 0.0 16.290000149 0.0 0.0 0.0 29.1751946751" Properties=species:S:1:pos:R:3:initial_magmoms:R:1 pbc="T T T"
Si       1.34389243      -1.33082785      -1.38678453       0.00000000
Si      -1.36277254       1.33942897      -1.36437798       0.00000000
Si      -1.35198856      -1.39129633       1.32717961       0.00000000
Si       1.37116189       1.34737849       1.35588800       0.00000000
Si      -2.73157238      -0.04458573       2.64805737       0.00000000
Si       2.68928354      -2.71127504      -0.03194684       0.00000000
Si      -2.69803127      -0.06480162      -2.70308179       0.00000000
Si      -2.71788878       2.69213429       0.00157546       0.00000000
Si       0.02728575       2.71282259       2.70646611       0.00000000
Si       2.71882111       2.70109379      -0.00186721       0.00000000
