10
Lattice="16.290000149 0.0 0.0 0.0 16.290000149 0.0 0.0 0.0 29.1751946751" Properties=species:S:1:pos:R:3:initial_magmoms:R:1 pbc="T T T"
H        0.53787951       0.26147079      -1.38199980       0.00000000
Si       1.68914270      -0.92365930       1.31562623       0.00000000
Si      -0.84579310       1.87637996       1.11224595       0.00000000
Si      -1.79717798      -1.59547519      -0.12781653       0.00000000
H        1.81938125       2.00821493      -0.97389717       0.00000000
H       -1.05256207       1.09845100      -2.55621386       0.00000000
H       -0.11927538      -0.65899567      -3.00344042       0.00000000
Si      -2.15788745       0.50774301       2.59449171       0.00000000
Si       2.65974977      -2.38148399      -0.18978464       0.00000000
Si       0.42801975      -2.41162049       2.63790440       0.00000000
