10
Lattice="16.290000149 0.0 0.0 0.0 16.290000149 0.0 0.0 0.0 29.1751946751" Properties=species:S:1:pos:R:3:initial_magmoms:R:1 pbc="T T T"
H       -0.64588222       0.43280901      -0.00440545       0.00000000
Si       1.98013097       0.51878763       1.13978733       0.00000000
H       -1.78269617      -1.25252182       1.10148030       0.00000000
Si       0.73546093      -0.64633834      -2.47011786       0.00000000
Si       0.20465127       2.09629496       1.76932968       0.00000000
Si       2.59845050       0.08285094      -1.17762756       0.00000000
Si      -2.51116868      -1.34809525      -0.21265799       0.00000000
Si      -0.91580752      -2.15578604      -1.73154780       0.00000000
Si      -0.71783515       1.18446220      -2.56590002       0.00000000
Si       1.22287402      -1.33547050       2.42623836       0.00000000
