10
Lattice="16.290000149 0.0 0.0 0.0 16.290000149 0.0 0.0 0.0 29.1751946751" Properties=species:S:1:pos:R:3:initial_magmoms:R:1 pbc="T T T"
Si       1.33501438       1.36429240      -1.36898766       0.00000000
Si      -1.36207207      -1.34276354      -1.37683579       0.00000000
Si      -1.42496776       1.36157197       1.29893802       0.00000000
Si       1.40190112      -1.34090648       1.35880552       0.00000000
Si       0.06256989      -2.72094642       2.67402329       0.00000000
Si       2.70905960      -2.68763337      -0.06943696       0.00000000
Si       2.69532713       2.71044914      -0.00236319       0.00000000
Si      -0.13097160       2.79883868       2.61085900       0.00000000
Si      -2.72547992      -2.69289504      -0.02622850       0.00000000
Si       2.62912457       0.09195542       2.78614357       0.00000000
