10
Lattice="16.290000149 0.0 0.0 0.0 16.290000149 0.0 0.0 0.0 29.1751946751" Properties=species:S:1:pos:R:3:initial_magmoms:R:1 pbc="T T T"
Si      -1.34479164       1.33444423      -1.37771104       0.00000000
Si       1.31799133       1.46108269       1.28181218       0.00000000
Si      -1.41008033      -1.29276790       1.38695958       0.00000000
Si       1.41838660      -1.35638360      -1.33394825       0.00000000
H        2.22808106       0.56151631       2.08558879       0.00000000
H        0.21357819       0.23745933       3.50662500       0.00000000
Si       0.00084708      -2.71472852       2.53856286       0.00000000
Si      -2.61676405       2.69329088       0.04288754       0.00000000
Si      -2.64984545      -2.66081481      -0.04959783       0.00000000
Si       0.07152939      -2.70335810      -2.71947825       0.00000000
