10
Lattice="16.290000149 0.0 0.0 0.0 16.290000149 0.0 0.0 0.0 29.1751946751" Properties=species:S:1:pos:R:3:initial_magmoms:R:1 pbc="T T T"
Si      -0.72796753       2.19104575       0.40054625       0.00000000
Si       1.89977240       0.54939003       1.28607176       0.00000000
Si      -1.61766217      -1.48731774       0.93652375       0.00000000
Si       0.72659917       0.34850663      -2.26063996       0.00000000
H        1.45736857      -2.18104368      -1.28035342       0.00000000
H        1.72305848       1.93780140       1.89440374       0.00000000
Si       2.54477495       1.66641000      -1.65977683       0.00000000
Si       1.21199230       3.21635464      -0.50163830       0.00000000
H       -0.44237124      -2.60691316      -2.52415032       0.00000000
Si      -0.40145076      -2.89975849       2.38770814       0.00000000
