10
Lattice="16.290000149 0.0 0.0 0.0 16.290000149 0.0 0.0 0.0 29.1751946751" Properties=species:S:1:pos:R:3:initial_magmoms:R:1 pbc="T T T"
H       -1.18400608      -0.54864720      -1.04149610       0.00000000
Si      -1.53922582       1.27573507       1.18988114       0.00000000
Si       1.14091903      -1.49868001       1.38400938       0.00000000
Si       1.66410659       0.78542236      -1.45155346       0.00000000
Si      -2.47568906      -1.09652878      -1.97072605       0.00000000
Si       3.08320833      -1.16120008      -1.45461686       0.00000000
Si      -0.14271669       2.59468751       2.55649102       0.00000000
Si       2.64746874      -0.11326437       2.54748756       0.00000000
Si       2.77582417       2.49321710      -0.20696883       0.00000000
Si       2.40510449      -2.92179072       0.05587050       0.00000000
