10
Lattice="16.290000149 0.0 0.0 0.0 16.290000149 0.0 0.0 0.0 29.1751946751" Properties=species:S:1:pos:R:3:initial_magmoms:R:1 pbc="T T T"
Si      -1.37039626       1.36052941      -1.31370067       0.00000000
Si      -1.38701206      -1.35935164       1.30439378       0.00000000
Si       1.32398605      -1.35180937      -1.38430464       0.00000000
Si       1.35571897       1.37164896       1.33814948       0.00000000
Si      -0.00553860      -2.70506855       2.64152213       0.00000000
Si      -0.02399517       2.69068448      -2.66017091       0.00000000
Si       2.67380804       0.04360069      -2.69432339       0.00000000
Si      -2.70503597       0.01115865       2.69307469       0.00000000
Si       2.73789291       0.01228266       2.66042765       0.00000000
Si      -0.00384444       2.72922663       2.67767019       0.00000000
