10
Lattice="16.290000149 0.0 0.0 0.0 16.290000149 0.0 0.0 0.0 29.1751946751" Properties=species:S:1:pos:R:3:initial_magmoms:R:1 pbc="T T T"
Si       2.20288043      -0.38226114       0.80401001       0.00000000
Si       0.04743648       2.29390895       0.66624475       0.00000000
Si       0.14201622      -0.41303295      -2.35893119       0.00000000
Si      -1.52055748      -1.37356793       1.28335846       0.00000000
H       -2.16055901      -0.20875635      -1.43737432       0.00000000
H       -0.87736312       2.46386252      -1.87357265       0.00000000
Si       0.48624021       2.04595886       2.94943830       0.00000000
Si      -0.71866594       1.66807973      -3.14884959       0.00000000
Si       2.11950821       0.31084578       3.03347920       0.00000000
Si       2.44097507      -0.35442153      -2.81111753       0.00000000
