10
Lattice="16.290000149 0.0 0.0 0.0 16.290000149 0.0 0.0 0.0 29.1751946751" Properties=species:S:1:pos:R:3:initial_magmoms:R:1 pbc="T T T"
Si       1.37860642       1.36371736       1.30486058       0.00000000
Si      -1.31694877       1.39131262      -1.34179638       0.00000000
Si       1.32739066      -1.35835795      -1.36642024       0.00000000
Si      -1.37052658      -1.35835795       1.33779938       0.00000000
Si      -2.62946666       0.03129309      -2.68656863       0.00000000
Si      -0.00654858       2.67822263       2.66308259       0.00000000
Si       2.73792549       0.04668714      -2.62430876       0.00000000
Si       2.70791930      -0.00283446       2.68082111       0.00000000
Si      -0.09255978      -2.78800095      -2.60107655       0.00000000
Si      -0.00796581      -2.72394866       2.67346896       0.00000000
