10
Lattice="16.290000149 0.0 0.0 0.0 16.290000149 0.0 0.0 0.0 29.1751946751" Properties=species:S:1:pos:R:3:initial_magmoms:R:1 pbc="T T T"
Si       1.33349941       1.33149574      -1.40601098       0.00000000
Si      -1.20290248       1.46566018       1.43789947       0.00000000
Si       1.46328184      -1.21041217       1.46517828       0.00000000
Si      -1.57522672      -1.12954861      -1.44945285       0.00000000
H        1.81850159      -3.03479445      -0.76619896       0.00000000
Si      -0.17686053       2.64101627      -2.68896099       0.00000000
Si      -2.53079813       0.08576685       2.81669583       0.00000000
Si       2.91887481       2.45757458      -0.05041474       0.00000000
H        2.01069101       3.19639125       0.92339491       0.00000000
Si      -2.60685614       2.89163793       0.22114798       0.00000000
