10
Lattice="16.290000149 0.0 0.0 0.0 16.290000149 0.0 0.0 0.0 29.1751946751" Properties=species:S:1:pos:R:3:initial_magmoms:R:1 pbc="T T T"
Si      -1.37860642      -1.36371736      -1.30486058       0.00000000
Si      -1.38515500       1.31450527       1.35822201       0.00000000
Si       1.32931288      -1.36655182       1.37596053       0.00000000
Si       1.32475168       1.38691432      -1.38284588       0.00000000
Si      -2.69555519       0.02759526      -2.64665696       0.00000000
Si      -0.01480761       2.67610493       2.68566420       0.00000000
Si      -0.05121576      -2.72207531      -2.67128082       0.00000000
Si       2.68773599      -0.00083079       2.70696209       0.00000000
Si       2.74986606       0.02684592      -2.65307550       0.00000000
Si       2.69483843      -2.71396289       0.02614097       0.00000000
