10
Lattice="16.290000149 0.0 0.0 0.0 16.290000149 0.0 0.0 0.0 29.1751946751" Properties=species:S:1:pos:R:3:initial_magmoms:R:1 pbc="T T T"
Si       1.35956341      -1.35757766      -1.33952071       0.00000000
Si       1.37306782       1.34754139       1.34305091       0.00000000
Si      -1.34428339      -1.35536222       1.36534076       0.00000000
Si      -1.32970384       1.36958176      -1.37301384       0.00000000
Si       0.00285075       2.70441695       2.67606556       0.00000000
Si       2.70831026       0.01617597      -2.67644483       0.00000000
Si       0.04437396      -2.70412373       2.69896808       0.00000000
Si       0.00384444      -2.72922663      -2.67767019       0.00000000
Si      -2.68855049       2.72504009      -0.01934315       0.00000000
Si      -2.70119153      -2.71806797       0.01540450       0.00000000
