10
Lattice="16.290000149 0.0 0.0 0.0 16.290000149 0.0 0.0 0.0 29.1751946751" Properties=species:S:1:pos:R:3:initial_magmoms:R:1 pbc="T T T"
Si       0.07078005       1.07085574       1.06649924       0.00000000
H        1.14973844       1.81731242      -1.92559202       0.00000000
H       -1.20324457      -2.08672784       1.79733787       0.00000000
Si      -2.47226816      -1.37231848      -1.03965806       0.00000000
Si      -0.46864701      -2.23362943      -2.01976955       0.00000000
Si      -1.55791045       0.40330782       2.62153712       0.00000000
Si       2.26668510       1.27785277       1.71483042       0.00000000
Si      -0.37844928       3.20202759       0.17595560       0.00000000
Si      -3.09438327      -0.30716424       1.00911163       0.00000000
Si       2.29178311       0.85717981      -2.22411262       0.00000000
