10
Lattice="16.290000149 0.0 0.0 0.0 16.290000149 0.0 0.0 0.0 29.1751946751" Properties=species:S:1:pos:R:3:initial_magmoms:R:1 pbc="T T T"
Si       1.32274801       1.32812371      -1.36137643       0.00000000
Si      -1.25848396       1.40252014       1.36213149       0.00000000
Si      -1.72480151      -0.93926512      -1.27712985       0.00000000
Si       1.45069505      -1.38538306       1.22455586       0.00000000
Si      -3.43075548       0.72793495      -1.14824522       0.00000000
Si      -2.57310326       2.66655899      -0.11163888       0.00000000
Si      -2.59046840      -2.66685221       0.10555294       0.00000000
Si       2.58693347      -0.09498699      -2.68951532       0.00000000
Si      -2.66901878      -0.00252495       2.62002001       0.00000000
Si       2.81258093       0.01071882       2.54241399       0.00000000
