10
Lattice="16.290000149 0.0 0.0 0.0 16.290000149 0.0 0.0 0.0 29.1751946751" Properties=species:S:1:pos:R:3:initial_magmoms:R:1 pbc="T T T"
Si      -1.37099899       1.35669637       1.32557497       0.00000000
Si      -1.37393119      -1.36361962      -1.33059310       0.00000000
Si       1.35531172       1.37577196      -1.33972494       0.00000000
Si       1.35839053      -1.34144893       1.37598971       0.00000000
Si      -0.01218492       2.66721059       2.71501444       0.00000000
Si       2.68788260      -2.70604595       0.00974451       0.00000000
Si      -0.01251072      -2.71560818      -2.68225070       0.00000000
Si       2.70194087       0.02782332      -2.70704961       0.00000000
Si      -2.71231760       0.02423952       2.69841376       0.00000000
Si      -2.72697860       2.69306282      -0.05207772       0.00000000
