10
Lattice="16.290000149 0.0 0.0 0.0 16.290000149 0.0 0.0 0.0 29.1751946751" Properties=species:S:1:pos:R:3:initial_magmoms:R:1 pbc="T T T"
H       -1.43441596       0.30739230       0.44419234       0.00000000
Si       0.44922933      -2.13117185       0.89054364       0.00000000
Si      -0.33503643       0.18943641      -2.36249056       0.00000000
Si       1.21249729       1.60112782       1.39711255       0.00000000
H        1.52818772      -1.38471517      -2.10154762       0.00000000
H        0.10410939       2.76094326      -1.08922672       0.00000000
H        0.37844928      -3.20202759      -0.17595560       0.00000000
Si      -0.79780276       2.99390655       1.44679790       0.00000000
Si       3.39591117       0.20271276       0.36153901       0.00000000
Si      -2.06648426       1.80084323      -2.09667537       0.00000000
