10
Lattice="16.290000149 0.0 0.0 0.0 16.290000149 0.0 0.0 0.0 29.1751946751" Properties=species:S:1:pos:R:3:initial_magmoms:R:1 pbc="T T T"
Si       1.34640109       1.33015508      -1.34647024       0.00000000
Si      -1.35609364       1.39521734       1.28925185       0.00000000
Si       1.37039626      -1.36052941       1.31370067       0.00000000
Si      -1.30109860      -1.32721636      -1.42560504       0.00000000
Si      -2.68053093       0.01139486       2.65109159       0.00000000
Si      -0.01661580      -2.71988105       2.61809444       0.00000000
Si       0.03684798       2.73827898       2.61835702       0.00000000
Si       2.72611523       0.01111955       2.65185014       0.00000000
Si      -2.58008353       0.04529435      -2.81334068       0.00000000
Si      -2.65009143       2.74854168      -0.14234577       0.00000000
