10
Lattice="16.290000149 0.0 0.0 0.0 16.290000149 0.0 0.0 0.0 29.1751946751" Properties=species:S:1:pos:R:3:initial_magmoms:R:1 pbc="T T T"
Si       1.35609364      -1.39521734      -1.28925185       0.00000000
Si       1.39294162       1.34306164       1.32910517       0.00000000
Si      -1.32443729      -1.38382248       1.36183974       0.00000000
Si      -1.29399779       1.35332434      -1.43159763       0.00000000
Si      -2.64456668       2.67985163      -0.02476974       0.00000000
Si       2.70249473      -0.06506226      -2.63572210       0.00000000
Si       0.03409497       2.69851997       2.68277585       0.00000000
Si      -2.65588367      -0.04277754      -2.74945576       0.00000000
Si      -2.63842698      -2.76789909      -0.00177969       0.00000000
Si      -2.70462872      -0.03639186       2.70302344       0.00000000
