10
Lattice="16.290000149 0.0 0.0 0.0 16.290000149 0.0 0.0 0.0 29.1751946751" Properties=species:S:1:pos:R:3:initial_magmoms:R:1 pbc="T T T"
Si      -1.39259953      -1.35982405       1.30859501       0.00000000
Si      -1.37077093       1.34154667      -1.35326223       0.00000000
Si       1.35024553      -1.37007046      -1.35241615       0.00000000
Si       1.37889964       1.36502056       1.33695330       0.00000000
Si       2.77659795      -0.08418672       2.53369061       0.00000000
Si       0.00513135       2.69707016      -2.68665615       0.00000000
Si      -0.07475481      -2.80111440       2.58416369       0.00000000
Si      -2.67862988       0.00894321       2.72338772       0.00000000
Si      -2.69223203       2.70989039       0.02955447       0.00000000
Si       2.72565911      -0.02777445      -2.69418335       0.00000000
