10
Lattice="16.290000149 0.0 0.0 0.0 16.290000149 0.0 0.0 0.0 29.1751946751" Properties=species:S:1:pos:R:3:initial_magmoms:R:1 pbc="T T T"
Si      -1.54582327      -1.30548061      -1.19419907       0.00000000
Si      -1.40159161       1.18092727       1.47588557       0.00000000
Si       1.38745189      -1.31481478       1.43025557       0.00000000
Si       0.79164514       1.49857902      -1.70631126       0.00000000
H        1.18068292      -2.09274374      -2.23820423       0.00000000
Si      -1.27216756       2.23095787      -2.55186675       0.00000000
Si      -0.18046062      -2.65981493      -2.51361807       0.00000000
Si      -2.57040890       0.25703991      -2.66909268       0.00000000
Si       0.04359204       2.62367231       2.74815746       0.00000000
H       -0.59640949       3.78848388       0.02742468       0.00000000
