10
Lattice="16.290000149 0.0 0.0 0.0 16.290000149 0.0 0.0 0.0 29.1751946751" Properties=species:S:1:pos:R:3:initial_magmoms:R:1 pbc="T T T"
Si       1.25071363      -0.24177618      -1.95753886       0.00000000
Si      -0.35572473       2.11304108       0.93999560       0.00000000
Si       1.19006596      -1.33043689       1.54135471       0.00000000
Si      -2.07560666      -0.69116842      -0.88272469       0.00000000
H        0.33953247      -2.99392284      -0.23238043       0.00000000
H        2.64153755      -0.62933158      -1.48425885       0.00000000
H       -2.54971082       0.28784430       1.74479334       0.00000000
H       -1.26820909       2.03458844       2.15289597       0.00000000
H       -3.20686572      -0.63262216       0.12335272       0.00000000
H        0.98541469      -3.42673185      -0.22797497       0.00000000
