10
Lattice="16.290000149 0.0 0.0 0.0 16.290000149 0.0 0.0 0.0 29.1751946751" Properties=species:S:1:pos:R:3:initial_magmoms:R:1 pbc="T T T"
Si      -1.42930090      -1.32048370       1.22387024       0.00000000
Si       1.35619138      -1.37055916      -1.26792479       0.00000000
Si       1.24607098       1.11946510       1.62607948       0.00000000
Si      -1.39769830       1.44920728      -1.19673731       0.00000000
Si      -0.36890334       1.06842853       3.40582470       0.00000000
Si       2.69423570       0.07710057      -2.52298331       0.00000000
Si      -2.49743621       0.09392814       2.73499945       0.00000000
Si      -0.06462243      -2.68030775      -2.58139205       0.00000000
Si       2.52071462       2.72438849       0.34266266       0.00000000
Si      -0.16376337      -2.64220544       2.63918811       0.00000000
