10
Lattice="16.28999089631971 0.0 0.0 0.0 16.28999089631971 0.0 0.0 0.0 34.46413024517268" Properties=species:S:1:pos:R:3:initial_magmoms:R:1 pbc="T T T"
Si       1.35034326       1.46705201      -1.16347522       0.00000000
Si       0.24793380       0.00304623       2.31723156       0.00000000
Si       0.27539874      -2.24689599      -0.69245369       0.00000000
Si      -2.31479990       0.36098202      -0.82703620       0.00000000
Si      -0.20248470       3.22541090      -0.88755524       0.00000000
Si      -1.50114142      -3.19624461       0.46674798       0.00000000
Si      -1.85926241      -0.38361321       3.06244986       0.00000000
Si      -0.72911108      -2.42276283       2.69451060       0.00000000
Si      -3.22448237      -1.77525162      -0.35225807       0.00000000
Si       1.16602191       0.96595369      -3.48618658       0.00000000
