10
Lattice="16.28999089631971 0.0 0.0 0.0 16.28999089631971 0.0 0.0 0.0 34.46413024517268" Properties=species:S:1:pos:R:3:initial_magmoms:R:1 pbc="T T T"
Si      -0.37356065       1.98632115      -1.14155602       0.00000000
Si       2.07814788      -0.35927595      -0.98784592       0.00000000
Si       0.61840098       0.06458985       2.33125846       0.00000000
Si      -1.99313756      -1.31382108      -0.41908406       0.00000000
Si       1.22407947      -1.76955012      -2.61407128       0.00000000
Si       2.69667918      -2.03315490       0.55456263       0.00000000
Si      -2.33892539       2.72271290      -0.18203964       0.00000000
Si       1.50902415       3.27743953      -0.46247442       0.00000000
Si       0.78312546      -3.53652642       0.48918414       0.00000000
Si      -1.51829968      -3.26006883       0.89624021       0.00000000
