10
Lattice="16.28999089631971 0.0 0.0 0.0 16.28999089631971 0.0 0.0 0.0 34.46413024517268" Properties=species:S:1:pos:R:3:initial_magmoms:R:1 pbc="T T T"
Si      -1.13015133       2.03914962       0.36793926       0.00000000
Si       1.58102921      -0.33650253       1.74974487       0.00000000
Si      -0.77203034      -0.77348178      -2.22776262       0.00000000
Si       0.97704488       2.42580906      -0.37727904       0.00000000
Si       1.00450982       0.17586684      -3.38696429       0.00000000
Si       0.00547833      -1.52150229       3.33809899       0.00000000
Si       0.72911108       2.42276283      -2.69451060       0.00000000
Si       3.38718296      -1.42351794       0.40846910       0.00000000
Si      -0.91908017      -3.38452443       1.87957132       0.00000000
Si      -2.49537129       0.64751121      -3.04676867       0.00000000
