10
Lattice="16.28999089631971 0.0 0.0 0.0 16.28999089631971 0.0 0.0 0.0 34.46413024517268" Properties=species:S:1:pos:R:3:initial_magmoms:R:1 pbc="T T T"
Si       2.10719621       0.38665944      -0.74521830       0.00000000
Si      -2.03724762       0.78163625      -0.65519795       0.00000000
Si      -0.93804729       1.03660016       1.86942408       0.00000000
Si       1.13015133      -2.03914962      -0.36793926       0.00000000
Si       1.85926241       0.38361321      -3.06244986       0.00000000
Si      -1.82164947      -0.81389727       3.11366501       0.00000000
Si      -3.07547448      -0.93499713      -1.88208720       0.00000000
Si      -1.66340841       2.31587504      -2.45336495       0.00000000
Si       0.96646778       1.92764361       3.16845266       0.00000000
Si       0.35812099      -2.81263140      -2.59570188       0.00000000
