10
Lattice="16.28999089631971 0.0 0.0 0.0 16.28999089631971 0.0 0.0 0.0 34.46413024517268" Properties=species:S:1:pos:R:3:initial_magmoms:R:1 pbc="T T T"
Si       2.06382897       0.53402204       0.93918254       0.00000000
Si      -0.56079954      -1.97470868       1.10254261       0.00000000
Si      -1.63087335       1.20593730       1.17350429       0.00000000
Si       0.02769300       0.46075613      -2.31371621       0.00000000
Si      -1.89278397      -0.75531403       2.59001530       0.00000000
Si       3.10585140      -1.65669530       0.74073797       0.00000000
Si      -1.34902377      -3.39420299      -0.58819964       0.00000000
Si       1.38510612      -2.49597239       2.36038067       0.00000000
Si       2.53703718      -2.26815674      -1.50308495       0.00000000
Si       3.04826625       2.10258777      -0.57630951       0.00000000
