10
Lattice="16.28999089631971 0.0 0.0 0.0 16.28999089631971 0.0 0.0 0.0 34.46413024517268" Properties=species:S:1:pos:R:3:initial_magmoms:R:1 pbc="T T T"
Si      -1.21249728       1.77166782       0.81338839       0.00000000
Si       1.20554145      -0.41632353       2.02959376       0.00000000
Si       1.06710903       0.12325014      -2.16452091       0.00000000
Si      -2.22024555      -0.95123826      -0.49883410       0.00000000
Si      -2.77040772       0.44755146      -2.31812762       0.00000000
Si      -2.77495263       2.30466033      -0.88042116       0.00000000
Si       2.16889947      -2.02999464      -2.27432369       0.00000000
Si      -2.29024368       1.03873185       2.78235972       0.00000000
Si      -0.81702495       0.31801338      -3.66288427       0.00000000
Si      -2.23508574      -3.14705044       0.28646601       0.00000000
