10
Lattice="16.28999089631971 0.0 0.0 0.0 16.28999089631971 0.0 0.0 0.0 34.46413024517268" Properties=species:S:1:pos:R:3:initial_magmoms:R:1 pbc="T T T"
Si      -1.20554145       0.41632353      -2.02959376       0.00000000
Si       2.28643182      -0.77519223       0.00203338       0.00000000
Si       0.17809857       1.81294668       1.61667879       0.00000000
Si      -1.20488985      -1.46706111       1.55846884       0.00000000
Si       2.24394750      -1.36093176       2.24540827       0.00000000
Si      -2.41803873       2.18799135      -1.21620537       0.00000000
Si       1.70489511       0.78740973       3.11928124       0.00000000
Si      -2.01135888       1.79378964       2.50888669       0.00000000
Si       0.48847194      -2.97203394       2.26815461       0.00000000
Si      -3.49578513       1.45505538       0.75276595       0.00000000
