10
Lattice="16.28999089631971 0.0 0.0 0.0 16.28999089631971 0.0 0.0 0.0 34.46413024517268" Properties=species:S:1:pos:R:3:initial_magmoms:R:1 pbc="T T T"
Si       1.35578412      -1.35637056       1.35895588       0.00000000
Si      -1.35856971       1.35790182       1.35778410       0.00000000
Si      -1.35392706      -1.35091341      -1.37997212       0.00000000
Si       1.36384767       1.34366436      -1.38339785       0.00000000
Si       2.71484253      -2.71443528      -0.00158535       0.00000000
Si       2.71417464       0.00127062       2.71587837       0.00000000
Si      -0.00065160      -2.71414206       2.71591284       0.00000000
Si       2.71694394       2.71461447      -0.00341195       0.00000000
Si      -2.71625162       0.00122175       2.71591284       0.00000000
Si      -2.71848009      -2.71381626      -0.00192999       0.00000000
