10
Lattice="16.28999089631971 0.0 0.0 0.0 16.28999089631971 0.0 0.0 0.0 34.46413024517268" Properties=species:S:1:pos:R:3:initial_magmoms:R:1 pbc="T T T"
Si       0.49956543      -1.61402949      -1.72675728       0.00000000
Si      -0.91588896       2.01590379      -0.97671400       0.00000000
Si       1.56426354       0.84357765       1.72710192       0.00000000
Si      -1.90790109      -1.81121994       0.05038659       0.00000000
Si       1.31079114      -3.21017256       0.20078814       0.00000000
Si      -0.15289794       1.83730023       3.04566582       0.00000000
Si       2.60755659       1.70408061      -1.94481196       0.00000000
Si      -1.75353705       0.07941375       3.23956113       0.00000000
Si       1.74936681      -0.10283877      -3.29036128       0.00000000
Si       3.35344311       1.87960536       0.42873402       0.00000000
