10
Lattice="16.28999089631971 0.0 0.0 0.0 16.28999089631971 0.0 0.0 0.0 34.46413024517268" Properties=species:S:1:pos:R:3:initial_magmoms:R:1 pbc="T T T"
Si       1.67242914       0.59535063       1.57514949       0.00000000
Si      -0.96308109       2.12335263      -0.45382392       0.00000000
Si      -1.48968792      -1.72625130       0.89427575       0.00000000
Si       0.91683378      -0.56803230      -2.19970881       0.00000000
Si      -1.76837724       1.81895769      -2.61141754       0.00000000
Si       2.44025829      -1.47419613       2.35410820       0.00000000
Si       0.51129423       2.17890153       2.98008054       0.00000000
Si       0.90461628       3.61196541      -0.46888475       0.00000000
Si      -3.37382190      -1.53148806      -0.60408761       0.00000000
Si      -0.38789748      -3.87949608       0.78447297       0.00000000
