10
Lattice="16.28999089631971 0.0 0.0 0.0 16.28999089631971 0.0 0.0 0.0 34.46413024517268" Properties=species:S:1:pos:R:3:initial_magmoms:R:1 pbc="T T T"
Si       1.21249728      -1.77166782      -0.81338839       0.00000000
Si       0.78923421       1.95333390       0.97316419       0.00000000
Si      -1.07774640      -0.73293597       1.96897133       0.00000000
Si      -1.56245535       0.53299251      -1.69380956       0.00000000
Si      -1.00774827      -2.72290608      -1.31222249       0.00000000
Si      -2.77933138       0.83209320       1.72992798       0.00000000
Si      -3.42970312       0.12043197      -0.39003078       0.00000000
Si       2.41803873      -2.18799135       1.21620537       0.00000000
Si      -1.35483930       2.71391400       1.80488751       0.00000000
Si       2.02312026       2.97046521      -0.73256996       0.00000000
