10
Lattice="16.28999089631971 0.0 0.0 0.0 16.28999089631971 0.0 0.0 0.0 34.46413024517268" Properties=species:S:1:pos:R:3:initial_magmoms:R:1 pbc="T T T"
Si       2.19390462       0.73844199       0.10022175       0.00000000
Si      -1.44347319       1.79320320      -0.64458299       0.00000000
Si      -0.34515252       0.43965081       2.36055299       0.00000000
Si      -0.18999027      -1.57165920      -1.84462467       0.00000000
Si      -1.10218140       2.53659735       1.59376013       0.00000000
Si      -2.16497358      -1.05098193       2.48234930       0.00000000
Si      -3.18845799      -1.38753333       0.28532869       0.00000000
Si       2.60508051       0.80524728      -2.20487843       0.00000000
Si       0.65176290       0.14913495      -3.44258943       0.00000000
Si      -2.00073780      -2.97217566      -0.99615178       0.00000000
