10
Lattice="16.28999089631971 0.0 0.0 0.0 16.28999089631971 0.0 0.0 0.0 34.46413024517268" Properties=species:S:1:pos:R:3:initial_magmoms:R:1 pbc="T T T"
Si       1.71269802      -1.71233964      -0.11962506       0.00000000
Si       0.18999027       1.57165920       1.84462467       0.00000000
Si      -1.81074753      -1.40051646       0.84847290       0.00000000
Si       0.84175317       1.72079415      -1.59796476       0.00000000
Si      -1.90793367      -0.97808418      -1.61505897       0.00000000
Si       2.45858454      -1.53681489       2.25392091       0.00000000
Si      -2.99846772       0.18412587       2.12995337       0.00000000
Si       2.79507078       2.37690648      -0.36025375       0.00000000
Si       2.10719295       0.38274984      -3.05641863       0.00000000
Si      -1.25348292       3.36486240       1.20004169       0.00000000
