10
Lattice="16.28999089631971 0.0 0.0 0.0 16.28999089631971 0.0 0.0 0.0 34.46413024517268" Properties=species:S:1:pos:R:3:initial_magmoms:R:1 pbc="T T T"
Si      -1.67754420       0.55117215       1.55857223       0.00000000
Si       1.81982106       1.49063274      -0.12179630       0.00000000
Si       0.92722680      -2.09979729       0.54387874       0.00000000
Si      -1.02348441      -0.33655140      -2.19702060       0.00000000
Si       2.16497358       1.05098193      -2.48234930       0.00000000
Si      -2.88098424      -1.54030095      -1.36664138       0.00000000
Si       1.73252295      -1.79540235       2.70147236       0.00000000
Si      -0.46983618       1.34794863       3.42776985       0.00000000
Si      -2.61726543       2.55091626       0.88555632       0.00000000
Si       1.06279218       3.58757928      -0.88858917       0.00000000
