10
Lattice="16.28999089631971 0.0 0.0 0.0 16.28999089631971 0.0 0.0 0.0 34.46413024517268" Properties=species:S:1:pos:R:3:initial_magmoms:R:1 pbc="T T T"
Si       0.87003261      -0.19261296       2.14780580       0.00000000
Si      -2.25093591      -0.68144328       0.04366608       0.00000000
Si      -0.54923364       2.18145906      -0.71933573       0.00000000
Si       1.65312549      -0.96189192      -1.44563322       0.00000000
Si      -1.75694166       1.38468258      -2.58853334       0.00000000
Si      -3.38173884       1.13660217       1.02706612       0.00000000
Si       1.17509544       1.96897230       3.01502719       0.00000000
Si       1.42545645       3.48063543      -0.59523033       0.00000000
Si       3.12750081      -0.90634302       1.98827125       0.00000000
Si       3.52082286       0.52672086      -1.46069405       0.00000000
