10
Lattice="16.28999089631971 0.0 0.0 0.0 16.28999089631971 0.0 0.0 0.0 34.46413024517268" Properties=species:S:1:pos:R:3:initial_magmoms:R:1 pbc="T T T"
Si      -1.94590566       0.52126371      -1.25783806       0.00000000
Si      -0.20926134      -2.31842538       0.51068977       0.00000000
Si      -0.04763196       1.39944132       1.94753462       0.00000000
Si       1.72074528       0.83927709      -1.61964271       0.00000000
Si       2.73429279      -1.30396563      -0.67542840       0.00000000
Si       0.67872285       3.02999443      -1.42119813       0.00000000
Si      -2.35470321       0.99046458       2.32022994       0.00000000
Si       1.24804206      -3.15595944      -1.09492603       0.00000000
Si       0.59359131       3.52618946       0.89858377       0.00000000
Si      -1.38510612       2.49597239      -2.36038067       0.00000000
