10
Lattice="16.28999089631971 0.0 0.0 0.0 16.28999089631971 0.0 0.0 0.0 34.46413024517268" Properties=species:S:1:pos:R:3:initial_magmoms:R:1 pbc="T T T"
Si       1.45730340      -0.83753406      -1.60561580       0.00000000
Si      -1.97469009      -1.29917637      -0.12410540       0.00000000
Si       0.20926134       2.31842538      -0.51068977       0.00000000
Si       1.22386770      -0.58560921       1.98696161       0.00000000
Si       2.94355413       1.01445975      -1.18611817       0.00000000
Si       2.09536641      -2.95391457      -0.86546372       0.00000000
Si      -1.73664432       2.83968909      -1.76852783       0.00000000
Si      -1.42545645      -3.48063543       0.59523033       0.00000000
Si       2.54003454      -2.51424747       1.43729289       0.00000000
Si       0.31496715      -1.15649226      -3.67367155       0.00000000
