10
Lattice="16.28999089631971 0.0 0.0 0.0 16.28999089631971 0.0 0.0 0.0 34.46413024517268" Properties=species:S:1:pos:R:3:initial_magmoms:R:1 pbc="T T T"
Si       0.24938361       2.32533234       0.44196825       0.00000000
Si      -0.20329920      -0.32320989      -2.44230195       0.00000000
Si       1.21101489      -0.07690509       2.20567110       0.00000000
Si      -2.15257689      -1.29046122       0.67663465       0.00000000
Si       2.87461485       0.07374483      -0.12569075       0.00000000
Si       0.28447227       3.28046621      -1.90124927       0.00000000
Si       1.01395476       1.49809356      -3.36011672       0.00000000
Si      -2.52084492      -0.93615372      -2.70939911       0.00000000
Si      -1.34205165      -2.84830650       2.29321004       0.00000000
Si      -1.46649096       2.91288676       2.14990811       0.00000000
