10
Lattice="16.28999089631971 0.0 0.0 0.0 16.28999089631971 0.0 0.0 0.0 34.46413024517268" Properties=species:S:1:pos:R:3:initial_magmoms:R:1 pbc="T T T"
Si      -1.35544203      -1.35606274       1.35726714       0.00000000
Si      -1.35200484       1.35853937      -1.35847338       0.00000000
Si       1.35853713      -1.35249523      -1.36036891       0.00000000
Si       1.35940050       1.35851331       1.35688803       0.00000000
Si      -2.71305063       0.00117777       2.71449981       0.00000000
Si       0.00232947      -2.71393198       2.71446534       0.00000000
Si      -2.71409319       2.71470142      -0.00031018       0.00000000
Si      -2.71339272      -2.71575646      -0.00037911       0.00000000
Si       0.00223173       2.71631413       2.71449981       0.00000000
Si       2.71699281      -2.71445326      -0.00051696       0.00000000
