10
Lattice="16.28999089631971 0.0 0.0 0.0 16.28999089631971 0.0 0.0 0.0 34.46413024517268" Properties=species:S:1:pos:R:3:initial_magmoms:R:1 pbc="T T T"
Si       0.01975977       1.93185228      -1.31535873       0.00000000
Si       0.69636492       0.77529160       2.12312947       0.00000000
Si       1.76992479      -1.42568681      -0.66619201       0.00000000
Si      -2.19118419      -1.05355805       0.03170702       0.00000000
Si      -3.23320662       1.13715929       0.23015159       0.00000000
Si       0.44315316      -3.34771133      -0.66250435       0.00000000
Si      -1.17763668      -3.19680077       0.97592132       0.00000000
Si       1.77173298      -1.25729708       2.84339573       0.00000000
Si      -2.24876934       2.70572502      -1.28534046       0.00000000
Si       2.27322063       2.52265800       1.66837501       0.00000000
