10
Lattice="16.28999089631971 0.0 0.0 0.0 16.28999089631971 0.0 0.0 0.0 34.46413024517268" Properties=species:S:1:pos:R:3:initial_magmoms:R:1 pbc="T T T"
Si      -2.08546209       0.77891287      -0.70451614       0.00000000
Si       0.80523099      -1.72214689      -1.40413838       0.00000000
Si       1.73973942       1.62659560      -0.45334142       0.00000000
Si      -1.43180955      -0.68368804       2.10934381       0.00000000
Si       2.41919532      -2.87544631      -0.02650293       0.00000000
Si      -0.93206493      -3.37354564      -1.40210499       0.00000000
Si      -2.04297777       1.36465240      -2.94789103       0.00000000
Si       3.45742218      -1.15881293       1.20038633       0.00000000
Si       3.83126139       0.37542586      -0.59778067       0.00000000
Si       1.19860191      -0.73917015      -3.65275181       0.00000000
