10
Lattice="16.28999089631971 0.0 0.0 0.0 16.28999089631971 0.0 0.0 0.0 34.46413024517268" Properties=species:S:1:pos:R:3:initial_magmoms:R:1 pbc="T T T"
Si      -0.04292415      -0.19557774      -2.35972585       0.00000000
Si      -1.54800612      -1.76239881       0.37658976       0.00000000
Si       2.21674320      -0.46902168       0.72347143       0.00000000
Si      -0.06916734       2.06272125       1.20755487       0.00000000
Si       2.90333412      -1.81143171      -1.04581462       0.00000000
Si       2.19568023      -0.47555397      -2.88713073       0.00000000
Si      -0.60071004      -3.48658128      -0.98726003       0.00000000
Si      -0.81075330       1.87396902      -3.13868456       0.00000000
Si      -0.31692195       1.34242632       3.50186777       0.00000000
Si      -1.59049044      -2.34813834       2.61996465       0.00000000
