10
Lattice="16.28999089631971 0.0 0.0 0.0 16.28999089631971 0.0 0.0 0.0 34.46413024517268" Properties=species:S:1:pos:R:3:initial_magmoms:R:1 pbc="T T T"
Si      -0.41117589      -0.06680529       2.30510018       0.00000000
Si      -1.95331761      -0.65611233      -1.23771100       0.00000000
Si       0.67267926       1.97291448      -1.25277183       0.00000000
Si       1.84596651      -1.68344118      -0.04776731       0.00000000
Si      -0.68787783      -1.99415664      -2.69616488       0.00000000
Si       2.04641496       0.72444888      -2.69051276       0.00000000
Si      -2.60508051      -0.80524728       2.20487843       0.00000000
Si       0.61017453      -3.33021357      -1.26162912       0.00000000
Si       2.03971977       2.29974075       1.99750764       0.00000000
Si      -2.79507078      -2.37690648       0.36025375       0.00000000
