10
Lattice="16.28999089631971 0.0 0.0 0.0 16.28999089631971 0.0 0.0 0.0 34.46413024517268" Properties=species:S:1:pos:R:3:initial_magmoms:R:1 pbc="T T T"
Si       1.35544203       1.35606274      -1.35726714       0.00000000
Si      -1.35760860       1.35724051       1.35723267       0.00000000
Si       1.35777150      -1.35786924       1.35719821       0.00000000
Si      -1.35795069      -1.35969372      -1.35764624       0.00000000
Si       0.00506619      -2.71614573      -2.71260428       0.00000000
Si      -2.71476108      -0.00190593       2.71443088       0.00000000
Si       2.71521720      -0.00161271       2.71398285       0.00000000
Si       2.71484253       2.71457604      -0.00037911       0.00000000
Si       0.00070047       2.71492791       2.71456874       0.00000000
Si      -2.71507059       2.71471940      -0.00041357       0.00000000
