10
Lattice="16.28999089631971 0.0 0.0 0.0 16.28999089631971 0.0 0.0 0.0 34.46413024517268" Properties=species:S:1:pos:R:3:initial_magmoms:R:1 pbc="T T T"
Si       1.35744570       1.35625653       1.35678464       0.00000000
Si       1.35689184      -1.35746199      -1.35709482       0.00000000
Si      -1.35777150       1.35786924      -1.35719821       0.00000000
Si      -1.35959598      -1.35830907       1.35723267       0.00000000
Si      -2.71021617       0.00167787       2.71387945       0.00000000
Si       2.71458189       0.00029322       2.71215625       0.00000000
Si      -0.00232947       2.71393198      -2.71446534       0.00000000
Si      -0.00206883      -2.71438641      -2.71418963       0.00000000
Si       2.71466334      -0.00052128      -2.71498231       0.00000000
Si       2.71466334      -2.71500543      -0.00024125       0.00000000
