10
Lattice="16.28999089631971 0.0 0.0 0.0 16.28999089631971 0.0 0.0 0.0 34.46413024517268" Properties=species:S:1:pos:R:3:initial_magmoms:R:1 pbc="T T T"
Si       1.37373570      -1.24846560      -1.43774092       0.00000000
Si       0.97373475       1.70018730       1.32611154       0.00000000
Si      -0.67267926      -1.97291448       1.25277183       0.00000000
Si      -1.36674729       1.43446482      -1.41916475       0.00000000
Si       1.36704051       0.32682627       3.25027948       0.00000000
Si      -2.62599687      -2.62902681       0.01506083       0.00000000
Si      -0.88552440       3.39073159       1.24284616       0.00000000
Si       2.65074138       2.72494233      -0.05848566       0.00000000
Si       2.77721694      -2.60962542      -0.13988998       0.00000000
Si       0.00130320      -2.61404001      -2.79183736       0.00000000
