10
Lattice="16.28999089631971 0.0 0.0 0.0 16.28999089631971 0.0 0.0 0.0 34.46413024517268" Properties=species:S:1:pos:R:3:initial_magmoms:R:1 pbc="T T T"
Si      -0.56881422      -0.61146144      -2.24382292       0.00000000
Si       2.19118419       1.05355805      -0.03170702       0.00000000
Si      -1.04202243       2.19071734       0.19844457       0.00000000
Si      -1.72074528      -0.83927709       1.61964271       0.00000000
Si       1.01354751      -2.14324272       0.94421430       0.00000000
Si       2.63433735      -2.29415328      -0.69421136       0.00000000
Si       1.36684503      -1.96374321      -2.66983427       0.00000000
Si      -3.10585140       1.65669530      -0.74073797       0.00000000
Si      -3.66665094      -0.31801338       0.36180464       0.00000000
Si      -1.12715397       2.68691237       2.51822648       0.00000000
