10
Lattice="16.28999089631971 0.0 0.0 0.0 16.28999089631971 0.0 0.0 0.0 34.46413024517268" Properties=species:S:1:pos:R:3:initial_magmoms:R:1 pbc="T T T"
Si       1.62078984      -0.15091056      -1.63842567       0.00000000
Si      -1.48625073      -1.85199381      -0.41949763       0.00000000
Si       1.38779397       0.08008164       1.99564658       0.00000000
Si      -1.01354751       2.14324272      -0.94421430       0.00000000
Si      -2.73429279       1.30396563       0.67542840       0.00000000
Si       2.40445287      -2.15313075      -0.68955870       0.00000000
Si      -2.94355413      -1.01445975       1.18611817       0.00000000
Si       1.17763668       3.19680077      -0.97592132       0.00000000
Si       0.35329752       0.17949951      -3.61404857       0.00000000
Si       2.83532337      -1.83990663       1.67475088       0.00000000
