10
Lattice="16.28999089631971 0.0 0.0 0.0 16.28999089631971 0.0 0.0 0.0 34.46413024517268" Properties=species:S:1:pos:R:3:initial_magmoms:R:1 pbc="T T T"
Si       1.35720135      -1.35701329      -1.35719821       0.00000000
Si      -1.35780408       1.35730211      -1.35750838       0.00000000
Si      -1.35742941      -1.35888664       1.35685357       0.00000000
Si       1.35749457       1.35883011       1.35747392       0.00000000
Si      -0.00029322      -2.71484995       2.71222517       0.00000000
Si      -0.00011403       2.71404408      -2.71391392       0.00000000
Si       2.71481711      -2.71441012       0.00010339       0.00000000
Si       2.71519462       0.00113374      -2.71439642       0.00000000
Si      -2.71487511      -2.71514317       0.00006893       0.00000000
Si      -2.71497285       2.71510293       0.00010339       0.00000000
