10
Lattice="16.28999089631971 0.0 0.0 0.0 16.28999089631971 0.0 0.0 0.0 34.46413024517268" Properties=species:S:1:pos:R:3:initial_magmoms:R:1 pbc="T T T"
Si       1.64033784       1.16018032       1.11777576       0.00000000
Si      -0.10963170      -2.03369314       1.14603636       0.00000000
Si      -2.12693643       1.09233247       0.43286972       0.00000000
Si       1.36014984      -0.06225386      -2.02046076       0.00000000
Si      -1.92182904      -2.01445465      -2.01377472       0.00000000
Si       0.45103752       3.05452813       1.63491032       0.00000000
Si      -0.24482241      -0.98969962      -3.39837193       0.00000000
Si      -1.41838659       3.37071703       0.14013123       0.00000000
Si      -1.52852328      -3.38781568      -0.08960679       0.00000000
Si      -1.26179082       2.94662317      -2.11833895       0.00000000
