10
Lattice="16.28999089631971 0.0 0.0 0.0 16.28999089631971 0.0 0.0 0.0 34.46413024517268" Properties=species:S:1:pos:R:3:initial_magmoms:R:1 pbc="T T T"
Si      -1.60497225      -0.92744576      -1.37791116       0.00000000
Si       1.87237653      -1.47544136       0.25655113       0.00000000
Si      -1.36014984       0.06225386       2.02046076       0.00000000
Si       1.11791754       1.74192228      -1.37663599       0.00000000
Si       0.28018800       1.22243418       3.13823653       0.00000000
Si      -0.18362088      -2.20971311      -2.74438023       0.00000000
Si       2.54739015       0.51268540      -2.75396126       0.00000000
Si      -3.28197888      -1.95220079       0.00668605       0.00000000
Si       1.24275190      -3.46098059      -1.26283537       0.00000000
Si       2.03610895      -1.75312070       2.87255240       0.00000000
