10
Lattice="16.28999089631971 0.0 0.0 0.0 16.28999089631971 0.0 0.0 0.0 34.46413024517268" Properties=species:S:1:pos:R:3:initial_magmoms:R:1 pbc="T T T"
Si       0.83540007       1.69197714      -1.40850296       0.00000000
Si       1.35765747      -1.33258716       1.41029023       0.00000000
Si      -1.38023541       1.35516510       1.41378834       0.00000000
Si      -0.77094054      -1.91832669      -1.29935500       0.00000000
Si       2.79810072      -2.47878414      -0.12320933       0.00000000
Si       2.70415629       2.65145814      -0.21360880       0.00000000
Si       1.31013954       0.50828058      -3.52949565       0.00000000
Si      -2.78604612       2.64122802      -0.02710261       0.00000000
Si       0.93775014      -3.57145218      -1.06131831       0.00000000
Si       2.70010008       0.01132155       2.78510996       0.00000000
