10
Lattice="16.28999089631971 0.0 0.0 0.0 16.28999089631971 0.0 0.0 0.0 34.46413024517268" Properties=species:S:1:pos:R:3:initial_magmoms:R:1 pbc="T T T"
Si      -1.34244261      -1.34390871      -1.37481973       0.00000000
Si      -1.35418770       1.35394335       1.35675017       0.00000000
Si       1.36000322      -1.35913986       1.35750838       0.00000000
Si       1.34245501       1.35114147      -1.38584826       0.00000000
Si       0.09800064      -2.49010569      -2.90831929       0.00000000
Si      -2.71078632       2.71134018      -0.00623801       0.00000000
Si      -2.71218726      -0.00239463       2.71329356       0.00000000
Si       0.00247608       2.71231758       2.71339695       0.00000000
Si       0.00255753      -2.71718829       2.71301785       0.00000000
Si       2.71713846      -0.00237834       2.71343142       0.00000000
