10
Lattice="16.28999089631971 0.0 0.0 0.0 16.28999089631971 0.0 0.0 0.0 34.46413024517268" Properties=species:S:1:pos:R:3:initial_magmoms:R:1 pbc="T T T"
Si       1.35726651       1.35637056       1.35764624       0.00000000
Si       1.35747828      -1.35690813      -1.35764624       0.00000000
Si      -1.35726651       1.35788553      -1.35737053       0.00000000
Si      -1.35747828      -1.35772263       1.35733606       0.00000000
Si       2.71492397       0.00114030      -2.71315571       0.00000000
Si       0.00073305       2.71422351      -2.71391392       0.00000000
Si       2.71580958      -0.00174303       2.71294892       0.00000000
Si      -0.00017919      -2.71560816      -2.71387945       0.00000000
Si      -2.71503801      -2.71454931       0.00013786       0.00000000
Si       2.71501024      -2.71459818       0.00010339       0.00000000
