10
Lattice="16.28999089631971 0.0 0.0 0.0 16.28999089631971 0.0 0.0 0.0 34.46413024517268" Properties=species:S:1:pos:R:3:initial_magmoms:R:1 pbc="T T T"
Si       1.35834759       1.35356868      -1.37546421       0.00000000
Si      -1.35726651      -1.35933534      -1.37153529       0.00000000
Si      -1.30904811       1.40279706       1.40927354       0.00000000
Si       1.29845961      -1.49729535       1.36229890       0.00000000
Si      -2.44139859      -0.23034060       2.64105670       0.00000000
Si       2.70330011       2.70062136      -0.02219491       0.00000000
Si      -2.69457777      -2.73065686      -0.02353901       0.00000000
Si      -2.72549619       2.71572219       0.00327409       0.00000000
Si      -0.00019548       2.71168227      -2.73076689       0.00000000
Si      -2.71494027      -0.00241092      -2.73107706       0.00000000
