10
Lattice="16.28999089631971 0.0 0.0 0.0 16.28999089631971 0.0 0.0 0.0 34.46413024517268" Properties=species:S:1:pos:R:3:initial_magmoms:R:1 pbc="T T T"
Si       1.24415643       1.33188669      -1.59510423       0.00000000
Si       1.72748512      -1.35363384       1.20031740       0.00000000
Si      -1.45129239      -1.28541132      -1.58800462       0.00000000
Si      -1.28435247       0.80083269       2.05489045       0.00000000
Si       2.95877618       0.50513661       1.11760344       0.00000000
Si       3.09004100       2.25535050      -0.51468761       0.00000000
Si       0.32337279       0.82831392       3.78047595       0.00000000
Si       0.98044623      -1.39053069       3.51603253       0.00000000
Si      -2.58364287      -2.91854898      -0.35622145       0.00000000
Si       2.56105583       0.01241298      -3.01947307       0.00000000
