10
Lattice="16.28999089631971 0.0 0.0 0.0 16.28999089631971 0.0 0.0 0.0 34.46413024517268" Properties=species:S:1:pos:R:3:initial_magmoms:R:1 pbc="T T T"
Si       1.60772526       0.02748123       1.72558550       0.00000000
Si      -0.80775594       2.24145513      -0.01506083       0.00000000
Si      -1.97584668      -1.21971375       0.81566303       0.00000000
Si       1.28435247      -0.80083269      -2.05489045       0.00000000
Si       2.26479870      -2.19136338       1.46114208       0.00000000
Si      -1.45588617      -3.29528781      -0.15264172       0.00000000
Si      -2.89295739       2.00573883       1.11994700       0.00000000
Si       3.09323221       1.80589311       0.93156596       0.00000000
Si      -1.75977612       2.25298845      -2.42765469       0.00000000
Si       3.01183759      -2.15446653      -0.85457305       0.00000000
