10
Lattice="16.28999089631971 0.0 0.0 0.0 16.28999089631971 0.0 0.0 0.0 34.46413024517268" Properties=species:S:1:pos:R:3:initial_magmoms:R:1 pbc="T T T"
Si       2.14311307      -0.82940535      -0.04952498       0.00000000
Si      -1.25924958      -0.52483122      -1.89863000       0.00000000
Si      -0.92533716      -0.65533041       2.05068582       0.00000000
Si       0.13743873       2.34569484       0.03467093       0.00000000
Si       2.79348480      -0.11774412       2.07043378       0.00000000
Si      -2.47754610       1.11674466       2.22772816       0.00000000
Si      -2.11528908       2.89919646       0.60022763       0.00000000
Si       1.01540457      -0.89998992       3.46957486       0.00000000
Si       0.23482035      -0.54213120      -3.72740116       0.00000000
Si       1.02985380       3.06647847      -2.00736439       0.00000000
