10
Lattice="16.28999089631971 0.0 0.0 0.0 16.28999089631971 0.0 0.0 0.0 34.46413024517268" Properties=species:S:1:pos:R:3:initial_magmoms:R:1 pbc="T T T"
Si       1.77808023       0.78224580      -1.39914108       0.00000000
Si      -1.94074173       0.24465951      -1.41888904       0.00000000
Si       0.51405931      -2.29698774       0.62490396       0.00000000
Si      -0.16219953       1.34543997       2.17175838       0.00000000
Si       2.16631655      -2.70910845      -1.05736011       0.00000000
Si       1.12770850       0.07058457      -3.51909984       0.00000000
Si      -1.01540457       0.89998992      -3.46957486       0.00000000
Si       3.47966522      -0.78278337      -1.16009774       0.00000000
Si       1.83374968      -1.77111396       2.91618401       0.00000000
Si      -2.53348596       1.59005061       2.47438808       0.00000000
