10
Lattice="16.28999089631971 0.0 0.0 0.0 16.28999089631971 0.0 0.0 0.0 34.46413024517268" Properties=species:S:1:pos:R:3:initial_magmoms:R:1 pbc="T T T"
Si      -1.61010360      -1.02174138      -1.34568718       0.00000000
Si      -1.16931249       0.19163556       2.02652646       0.00000000
Si       1.11114499       1.77929154      -1.14920707       0.00000000
Si       1.60264182      -1.44233289       1.15906381       0.00000000
Si       2.42336949       0.34119405      -2.60204329       0.00000000
Si      -0.29348064      -2.40368724      -2.64136688       0.00000000
Si       0.24939990       1.80926514       3.29463484       0.00000000
Si       3.18357818       0.44437491       1.99795568       0.00000000
Si      -3.21403329      -2.06847162      -0.00079268       0.00000000
Si      -2.26201311      -2.08000494       2.41180118       0.00000000
