10
Lattice="16.28999089631971 0.0 0.0 0.0 16.28999089631971 0.0 0.0 0.0 34.46413024517268" Properties=species:S:1:pos:R:3:initial_magmoms:R:1 pbc="T T T"
Si      -0.83540007      -1.69197714       1.40850296       0.00000000
Si       1.86875622       0.95948100       1.19489416       0.00000000
Si       0.47473947      -1.18369656      -2.12099269       0.00000000
Si      -1.81338651       1.84585248       0.03708342       0.00000000
Si      -2.21563548      -0.33681204       2.82229130       0.00000000
Si       0.53383959       2.38091382       2.80900537       0.00000000
Si      -0.19922670       0.35168481      -3.78485290       0.00000000
Si      -1.60634061      -3.61030383       0.10914796       0.00000000
Si      -0.95928552       3.58754670       1.44916721       0.00000000
Si      -3.62144619       0.94925088       1.38140035       0.00000000
