10
Lattice="16.28999089631971 0.0 0.0 0.0 16.28999089631971 0.0 0.0 0.0 34.46413024517268" Properties=species:S:1:pos:R:3:initial_magmoms:R:1 pbc="T T T"
Si      -1.35777150      -1.35694071       1.35788749       0.00000000
Si       1.35741312       1.35865116       1.35771517       0.00000000
Si       1.35910728      -1.35718506      -1.36074801       0.00000000
Si      -1.35845568       1.36195803      -1.35985195       0.00000000
Si       0.00343719       2.71394150      -2.71172889       0.00000000
Si       2.71410970      -2.71423980       0.00000000       0.00000000
Si       0.00000000      -2.71448415       2.71474106       0.00000000
Si      -2.71466334       0.00052128       2.71498231       0.00000000
Si       2.71502888       0.00125433       2.71501677       0.00000000
Si       0.00021177       2.71566445       2.71491338       0.00000000
