10
Lattice="16.28999089631971 0.0 0.0 0.0 16.28999089631971 0.0 0.0 0.0 34.46413024517268" Properties=species:S:1:pos:R:3:initial_magmoms:R:1 pbc="T T T"
Si       2.13200262      -0.91865826       0.17607734       0.00000000
Si      -0.41005188       1.67930352       1.57366753       0.00000000
Si      -0.07556931       1.39872456      -1.92833809       0.00000000
Si      -1.24969061      -2.08580418       0.13802892       0.00000000
Si      -2.84398055      -1.33253829      -1.40789497       0.00000000
Si      -3.50105399       0.88630632      -1.14345155       0.00000000
Si       1.12787073       3.49019766       0.99687552       0.00000000
Si       3.73264173       0.83922822      -0.01781797       0.00000000
Si      -2.66428556       1.51418808       2.31371621       0.00000000
Si       2.12719707      -2.51121753       1.98951196       0.00000000
