10
Lattice="16.28999089631971 0.0 0.0 0.0 16.28999089631971 0.0 0.0 0.0 34.46413024517268" Properties=species:S:1:pos:R:3:initial_magmoms:R:1 pbc="T T T"
Si      -1.35689184       1.35746199       1.35709482       0.00000000
Si       1.35777150      -1.35754344       1.35685357       0.00000000
Si       1.35777150       1.35694071      -1.35788749       0.00000000
Si      -1.35896067      -1.35692442      -1.35709482       0.00000000
Si      -2.70959715      -0.00081450      -2.71270767       0.00000000
Si       2.71350675       0.00117288       2.71350035       0.00000000
Si       0.00055386       2.71371852       2.71387945       0.00000000
Si       0.00078192      -2.71420722       2.71443088       0.00000000
Si      -2.71417464      -2.71508688       0.00003446       0.00000000
Si      -2.71466334       2.71533123      -0.00010339       0.00000000
