10
Lattice="16.28999089631971 0.0 0.0 0.0 16.28999089631971 0.0 0.0 0.0 34.46413024517268" Properties=species:S:1:pos:R:3:initial_magmoms:R:1 pbc="T T T"
Si      -2.06350317      -1.19904174       0.33502600       0.00000000
Si       0.56063664       2.01000681      -1.27158926       0.00000000
Si       0.05732451       1.10516247       2.36303441       0.00000000
Si       0.83165337      -1.75606200      -1.93354218       0.00000000
Si      -3.10935375       0.84654243      -0.15129762       0.00000000
Si      -1.69503966      -2.40725475       2.35031714       0.00000000
Si      -0.84093867      -0.66556053       3.76240092       0.00000000
Si       2.27089116       1.55336553      -2.80420999       0.00000000
Si      -2.25637677      -3.09394341      -1.03044361       0.00000000
Si       1.59886350       3.72664019      -0.04470000       0.00000000
