10
Lattice="16.28999089631971 0.0 0.0 0.0 16.28999089631971 0.0 0.0 0.0 34.46413024517268" Properties=species:S:1:pos:R:3:initial_magmoms:R:1 pbc="T T T"
Si      -1.35768190      -1.35668007       1.35812874       0.00000000
Si       1.35721764       1.35876519       1.35816320       0.00000000
Si       1.35856971      -1.35790182      -1.35778410       0.00000000
Si      -1.35801422       1.35987291      -1.36067909       0.00000000
Si      -2.71481715      -2.71344159       0.00220571       0.00000000
Si       2.71435383      -2.71427238       0.00117178       0.00000000
Si       0.00004887      -2.71471221       2.71549927       0.00000000
Si      -2.71485967       0.00065160       2.71570605       0.00000000
Si       2.71446786       2.71614573       0.00155089       0.00000000
Si       2.71616202       0.00091224       2.71522355       0.00000000
