10
Lattice="16.28999089631971 0.0 0.0 0.0 16.28999089631971 0.0 0.0 0.0 34.46413024517268" Properties=species:S:1:pos:R:3:initial_magmoms:R:1 pbc="T T T"
Si       1.35682668      -1.35695700      -1.35764624       0.00000000
Si      -1.35736914      -1.35718506       1.35785303       0.00000000
Si      -1.35765584       1.35736425      -1.35771517       0.00000000
Si       1.35847197       1.35889551       1.35626768       0.00000000
Si       2.71407690       0.00042354      -2.71425856       0.00000000
Si      -0.00022806       2.71381626      -2.71501677       0.00000000
Si       2.71472850       2.71508688      -0.00072375       0.00000000
Si      -2.71525063      -2.71507059      -0.00010339       0.00000000
Si       2.71577106      -2.71480995      -0.00058589       0.00000000
Si      -2.71538013       2.71562445      -0.00031018       0.00000000
