10
Lattice="16.28999089631971 0.0 0.0 0.0 16.28999089631971 0.0 0.0 0.0 34.46413024517268" Properties=species:S:1:pos:R:3:initial_magmoms:R:1 pbc="T T T"
Si       1.33635015       1.34773686      -1.37057030       0.00000000
Si      -1.09866276       1.39427739       1.52707200       0.00000000
Si      -1.38434049      -1.36228383      -1.36509050       0.00000000
Si       1.38339567      -1.36109466       1.42043992       0.00000000
Si      -2.22345468      -0.48801582       2.48555446       0.00000000
Si      -0.60331644      -2.26712817       2.62316981       0.00000000
Si       2.68850160       2.70796815       0.00896068       0.00000000
Si       2.68858305      -0.00252495      -2.72911261       0.00000000
Si       2.69579952      -2.72868903       0.01161442       0.00000000
Si      -2.72022149       2.72012049       0.02622722       0.00000000
