10
Lattice="16.28999089631971 0.0 0.0 0.0 16.28999089631971 0.0 0.0 0.0 34.46413024517268" Properties=species:S:1:pos:R:3:initial_magmoms:R:1 pbc="T T T"
Si      -1.33905507      -1.37598372       1.35220091       0.00000000
Si       1.35757753      -1.35436689      -1.36185087       0.00000000
Si      -1.35972708       1.36142046      -1.36364300       0.00000000
Si       1.37779505       1.36889757       1.39152450       0.00000000
Si      -2.65567803       0.00596214       2.64788061       0.00000000
Si      -2.71456638      -2.71239903      -0.00234356       0.00000000
Si       2.71367605      -2.71350675       0.00020678       0.00000000
Si      -0.00030396      -2.71225242      -2.71980729       0.00000000
Si       2.71315477       2.71920825      -0.00192999       0.00000000
Si      -2.71554378       2.71800279      -0.00789229       0.00000000
