10
Lattice="16.28999089631971 0.0 0.0 0.0 16.28999089631971 0.0 0.0 0.0 34.46413024517268" Properties=species:S:1:pos:R:3:initial_magmoms:R:1 pbc="T T T"
Si       1.31749448      -1.42460937      -1.30177986       0.00000000
Si       0.03633322      -1.07323407       2.19936416       0.00000000
Si      -1.60264182       1.44233289      -1.15906381       0.00000000
Si       1.58093635       1.88670780       0.83889186       0.00000000
Si       0.71732526       1.04668137       2.86565957       0.00000000
Si      -2.77195431       1.63396845       0.86746264       0.00000000
Si       2.44228639       0.45768384      -2.26026232       0.00000000
Si      -0.52839010      -2.34807318      -2.38219648       0.00000000
Si       1.18622965      -3.17482326       0.33051119       0.00000000
Si       3.50647952       0.84598857      -0.02036831       0.00000000
