10
Lattice="16.28999089631971 0.0 0.0 0.0 16.28999089631971 0.0 0.0 0.0 34.46413024517268" Properties=species:S:1:pos:R:3:initial_magmoms:R:1 pbc="T T T"
Si      -0.39364785       1.84339269      -1.38015133       0.00000000
Si      -1.42449208      -1.88182080      -0.07495953       0.00000000
Si      -0.18296928       0.51987906       2.31316479       0.00000000
Si       2.14407351      -0.76058010      -0.83172332       0.00000000
Si       0.27709290      -3.44684997       0.16408382       0.00000000
Si       1.35483930      -2.71391400      -1.80488751       0.00000000
Si      -2.69507299       2.11985028      -0.97309526       0.00000000
Si       1.34280099       2.31559092       2.37599293       0.00000000
Si       1.51990587       3.34676421      -1.31477284       0.00000000
Si      -2.07486382      -2.59348203      -2.19491829       0.00000000
