10
Lattice="16.28999089631971 0.0 0.0 0.0 16.28999089631971 0.0 0.0 0.0 34.46413024517268" Properties=species:S:1:pos:R:3:initial_magmoms:R:1 pbc="T T T"
Si      -1.35538339      -1.34462547       1.37983426       0.00000000
Si       1.36036161       1.37006786       1.38000658       0.00000000
Si      -1.45462044       1.31963565      -1.34334017       0.00000000
Si       1.33807689      -1.34258922      -1.56339721       0.00000000
Si       2.70449838      -2.69195508      -0.00122003       0.00000000
Si      -0.09528021       2.69359127      -2.70304534       0.00000000
Si      -2.71065067      -2.71441899      -0.01360300       0.00000000
Si       0.00083079      -2.70293454       2.74065120       0.00000000
Si       2.73181671       2.71809143       0.01373741       0.00000000
Si      -2.71394376       0.01441751       2.74085799       0.00000000
