10
Lattice="16.28999089631971 0.0 0.0 0.0 16.28999089631971 0.0 0.0 0.0 34.46413024517268" Properties=species:S:1:pos:R:3:initial_magmoms:R:1 pbc="T T T"
Si       1.35740989       1.35469269       1.35688803       0.00000000
Si      -1.35761576       1.35739683      -1.35730160       0.00000000
Si      -1.35929363      -1.35702216       1.35637107       0.00000000
Si       1.35772429      -1.35826020      -1.35740499       0.00000000
Si      -2.71511033      -0.00043983       2.71212178       0.00000000
Si       2.71435386       2.71467202       0.00010339       0.00000000
Si       0.00289246       2.71355562       2.71560266       0.00000000
Si      -2.71481711       2.71441012      -0.00010339       0.00000000
Si       2.71515207      -0.00180819      -2.71470659       0.00000000
Si       0.00037751       2.71554386      -2.71449981       0.00000000
