10
Lattice="16.28999089631971 0.0 0.0 0.0 16.28999089631971 0.0 0.0 0.0 34.46413024517268" Properties=species:S:1:pos:R:3:initial_magmoms:R:1 pbc="T T T"
Si      -1.87237653       1.47544136      -0.25655113       0.00000000
Si       1.93390319       0.80186159      -1.37146637       0.00000000
Si      -0.62962463      -1.98553923      -1.51938650       0.00000000
Si       0.16373242      -0.27767934       2.61600127       0.00000000
Si       2.34465554      -1.15970139       2.50623295       0.00000000
Si       0.67501362       1.98812675      -3.01051239       0.00000000
Si      -0.75445899       3.21736364      -1.63318712       0.00000000
Si      -2.05599741      -0.73427175      -3.00093135       0.00000000
Si      -1.49136972      -1.95556563       2.92445541       0.00000000
Si      -3.47734878       0.54799560      -1.63446229       0.00000000
