10
Lattice="16.290000149 0.0 0.0 0.0 16.290000149 0.0 0.0 0.0 29.1751946751" Properties=species:S:1:pos:R:3:initial_magmoms:R:1 pbc="T T T"
Si      -1.37037997       1.38714238       1.31087067       0.00000000
Si      -1.36005211      -1.34614045      -1.36735385       0.00000000
Si       1.35355240       1.34710156      -1.37491022       0.00000000
Si       1.34737849      -1.33358086       1.40729469       0.00000000
Si       0.01296684       2.73735534       2.65120829       0.00000000
Si       2.67107132      -2.72778007       0.04242073       0.00000000
Si      -2.69566922      -2.71008913       0.00154629       0.00000000
Si      -0.06582789      -2.61757496       2.78862346       0.00000000
Si      -0.01023012      -2.69570180      -2.74098036       0.00000000
Si       2.72756504       2.71120988      -0.04326681       0.00000000
