10
Lattice="16.290000149 0.0 0.0 0.0 16.290000149 0.0 0.0 0.0 29.1751946751" Properties=species:S:1:pos:R:3:initial_magmoms:R:1 pbc="T T T"
Si       1.36989127       1.34734591       1.33978329       0.00000000
Si       1.44519994      -1.33650166      -1.27466426       0.00000000
Si      -1.34622190      -1.38913628       1.33841206       0.00000000
Si      -1.37744983       1.33794658      -1.36271499       0.00000000
Si       0.11655495      -2.65776191      -2.62331972       0.00000000
Si       0.03303612       2.73341316      -2.62420665       0.00000000
Si       0.00641826       2.69487101       2.69152841       0.00000000
Si      -2.70904331      -0.02682963       2.68429296       0.00000000
Si       2.69571809      -0.03575655       2.70057272       0.00000000
Si      -2.69988833       2.69736338       0.00860668       0.00000000
