10
Lattice="16.290000149 0.0 0.0 0.0 16.290000149 0.0 0.0 0.0 29.1751946751" Properties=species:S:1:pos:R:3:initial_magmoms:R:1 pbc="T T T"
Si       1.08292663      -1.42011334      -1.49797120       0.00000000
Si      -1.54525312       1.32450733      -1.18500888       0.00000000
Si      -1.05542911      -1.76238254       1.18206219       0.00000000
Si       2.12708306       0.96995548       0.67966534       0.00000000
Si       0.21905163       0.80713693       3.38738598       0.00000000
Si       2.37803051      -2.71393031      -0.07124583       0.00000000
Si      -0.20137698       2.70280424      -2.49838862       0.00000000
Si       2.49800636      -0.09373266      -2.73677914       0.00000000
Si      -1.40217805      -0.87993694       3.31727799       0.00000000
Si       0.54630144      -3.53914914       1.09234846       0.00000000
