10
Lattice="16.290000149 0.0 0.0 0.0 16.290000149 0.0 0.0 0.0 29.1751946751" Properties=species:S:1:pos:R:3:initial_magmoms:R:1 pbc="T T T"
Si      -1.50221494      -1.36101322       1.16102687       0.00000000
Si       1.39207825      -1.35322660      -1.31378819       0.00000000
Si       1.33921720       1.28762677       1.43095577       0.00000000
Si      -1.34193763       1.34671060      -1.38377948       0.00000000
H       -0.85884139      -2.20377638       2.24010062       0.00000000
Si      -0.00752598      -2.72422560      -2.62769308       0.00000000
Si       2.69022836       2.67229307       0.07568046       0.00000000
Si      -2.93363355      -0.13533732       2.44785718       0.00000000
Si       2.74507680      -2.66338244       0.11235367       0.00000000
Si       2.73219140      -0.00488700      -2.68665615       0.00000000
