10
Lattice="16.290000149 0.0 0.0 0.0 16.290000149 0.0 0.0 0.0 29.1751946751" Properties=species:S:1:pos:R:3:initial_magmoms:R:1 pbc="T T T"
Si       1.38344455      -1.34387614      -1.33569876       0.00000000
Si      -1.29673288       1.30344436      -1.46100622       0.00000000
Si       1.38800575       1.35837424       1.33065145       0.00000000
Si      -1.34956135      -1.39103569       1.34532658       0.00000000
Si      -2.77896000       0.05289363       2.46676271       0.00000000
Si      -2.65898414       2.67309128      -0.19877060       0.00000000
Si       2.71029764      -0.01581759       2.66576671       0.00000000
Si       0.01809819      -2.68320737      -2.70850837       0.00000000
Si      -2.70914105      -2.69915528      -0.04440465       0.00000000
Si       2.72790714       0.02779074      -2.69844293       0.00000000
