10
Lattice="16.290000149 0.0 0.0 0.0 16.290000149 0.0 0.0 0.0 29.1751946751" Properties=species:S:1:pos:R:3:initial_magmoms:R:1 pbc="T T T"
Si      -1.37024151       1.34252407      -1.35699665       0.00000000
Si      -1.33154624      -1.39779604       1.34211731       0.00000000
Si       1.29901348      -1.35749458      -1.41773941       0.00000000
Si       1.35646831       1.38189700       1.35049059       0.00000000
Si       2.77599522       0.00930159       2.60362355       0.00000000
Si      -2.73605213      -0.07956036       2.65596385       0.00000000
Si       2.60905529      -2.78505246      -0.12063943       0.00000000
Si      -0.01009980       2.69255783      -2.71087156       0.00000000
Si      -2.70889442       2.70545951       0.01584213       0.00000000
Si       0.03823263      -2.63682974       2.78713552       0.00000000
