10
Lattice="16.290000149 0.0 0.0 0.0 16.290000149 0.0 0.0 0.0 29.1751946751" Properties=species:S:1:pos:R:3:initial_magmoms:R:1 pbc="T T T"
Si       1.35492076      -1.36669843       1.33721587       0.00000000
Si      -1.35553978      -1.36793647      -1.33782855       0.00000000
Si       1.37531584       1.33654564      -1.36175221       0.00000000
Si      -1.37787337       1.34571691       1.35784274       0.00000000
Si       2.64815129       0.07003071       2.65062479       0.00000000
Si       0.02914281      -2.72317326      -2.67174763       0.00000000
Si      -2.68500253      -0.00754227      -2.71165929       0.00000000
Si      -2.70705593       2.70493823      -0.00755638       0.00000000
Si       0.03142341       2.71959923      -2.70483230       0.00000000
Si      -2.70267881      -2.72171368       0.03862796       0.00000000
