10
Lattice="16.290000149 0.0 0.0 0.0 16.290000149 0.0 0.0 0.0 29.1751946751" Properties=species:S:1:pos:R:3:initial_magmoms:R:1 pbc="T T T"
Si       1.74716768       0.32260065      -1.49228203       0.00000000
Si      -1.91783801       1.06067612      -0.77827749       0.00000000
Si       0.63778609       0.67640316       2.14656495       0.00000000
Si      -0.04355946      -2.14540931       0.97999479       0.00000000
Si       1.86447197      -1.98259076      -1.72772585       0.00000000
Si      -0.60453820      -1.11032641       2.98987395       0.00000000
H        1.32714631       2.98818876       0.00741050       0.00000000
Si      -0.75585601       2.50074308      -2.28193785       0.00000000
Si      -2.89176825       1.46404747       1.37418084       0.00000000
Si       2.15073614      -2.86932063       0.51322085       0.00000000
