10
Lattice="16.290000149 0.0 0.0 0.0 16.290000149 0.0 0.0 0.0 29.1751946751" Properties=species:S:1:pos:R:3:initial_magmoms:R:1 pbc="T T T"
Si       1.34602154       1.33061608      -1.37974455       0.00000000
Si      -1.33014856      -1.36109467      -1.38040683       0.00000000
Si      -1.35277537       1.38987910       1.33021383       0.00000000
Si       1.36996784      -1.34759026       1.36464056       0.00000000
Si      -2.62750046      -2.67744071       0.08641693       0.00000000
Si       2.70980406       2.69742854      -0.01642563       0.00000000
Si      -2.69210660       0.03647331       2.71699835       0.00000000
Si      -0.04188648       2.66869298      -2.75125003       0.00000000
Si       0.01169459       2.71907795       2.71031723       0.00000000
Si       2.73072042       0.00643455       2.71851546       0.00000000
