10
Lattice="16.290000149 0.0 0.0 0.0 16.290000149 0.0 0.0 0.0 29.1751946751" Properties=species:S:1:pos:R:3:initial_magmoms:R:1 pbc="T T T"
Si       1.35654162      -1.40960629       1.30987872       0.00000000
Si      -1.46867677       1.27211869       1.34366359       0.00000000
Si      -1.10497515      -1.71282836      -1.23930392       0.00000000
Si       1.18974831       1.69021784      -1.19414072       0.00000000
Si       2.35987531      -2.65251701      -0.53425616       0.00000000
Si       2.52653830       0.05747112       2.76164515       0.00000000
Si      -2.78515834      -2.51247188       0.19071825       0.00000000
Si      -2.86765090       2.44584578      -0.11783861       0.00000000
Si      -0.12698707      -2.60851772       2.74521660       0.00000000
Si       0.30440309      -3.66318120      -1.25651728       0.00000000
