10
Lattice="16.290000149 0.0 0.0 0.0 16.290000149 0.0 0.0 0.0 29.1751946751" Properties=species:S:1:pos:R:3:initial_magmoms:R:1 pbc="T T T"
Si       0.90929152       0.07302807      -1.21584706       0.00000000
H       -1.27220014      -1.75780505      -0.42753330       0.00000000
H        1.89951176       0.42388209       1.24003330       0.00000000
Si      -1.80592571      -2.01515447       0.95878442       0.00000000
Si       0.01795158       1.49429800      -2.80717888       0.00000000
Si       1.17893989       2.94291559       0.25461192       0.00000000
Si       1.24804207      -2.04760415      -2.14802371       0.00000000
Si       2.79611337       1.41403717      -0.82647491       0.00000000
Si      -2.65250072      -0.13936095       2.07482314       0.00000000
H       -2.87381667      -0.91393417      -1.59582480       0.00000000
