10
Lattice="16.290000149 0.0 0.0 0.0 16.290000149 0.0 0.0 0.0 29.1751946751" Properties=species:S:1:pos:R:3:initial_magmoms:R:1 pbc="T T T"
H        1.32714631       0.59784301       0.82233204       0.00000000
Si       1.23083983      -1.85176577      -0.67572668       0.00000000
Si      -1.02506455       1.33604065      -1.62103217       0.00000000
Si      -1.79492996      -0.57598183       1.44318018       0.00000000
H        0.96681151       1.25817445      -2.68417626       0.00000000
H        0.54657838      -0.95363290       2.92075791       0.00000000
Si      -2.08717256       2.44354889       0.24924369       0.00000000
Si      -1.78215860      -0.70809373      -2.62620515       0.00000000
Si       2.48424131       1.07737174       1.96783771       0.00000000
Si      -0.30056679      -2.58149261      -2.28074167       0.00000000
