10
Lattice="16.290000149 0.0 0.0 0.0 16.290000149 0.0 0.0 0.0 29.1751946751" Properties=species:S:1:pos:R:3:initial_magmoms:R:1 pbc="T T T"
H       -0.59986297      -0.08920404      -1.40035099       0.00000000
Si       0.46968957      -2.03278025       1.05427483       0.00000000
Si      -1.71367544       0.44155674       1.52781742       0.00000000
H        1.51558903      -0.85116880      -1.70021364       0.00000000
Si       1.90105931       1.49490073       0.32378631       0.00000000
Si       0.79713487      -0.93066400      -3.02555521       0.00000000
Si      -2.55870290       2.28608975       0.40270521       0.00000000
Si      -0.33661656       1.46987929       3.16133657       0.00000000
Si       2.05539077      -1.21661866       2.61806527       0.00000000
Si       0.93001240       2.95077063       1.83450707       0.00000000
