10
Lattice="16.290000149 0.0 0.0 0.0 16.290000149 0.0 0.0 0.0 29.1751946751" Properties=species:S:1:pos:R:3:initial_magmoms:R:1 pbc="T T T"
Si      -1.36989127      -1.34734591      -1.33978329       0.00000000
Si      -1.36347301       1.34752510       1.35174512       0.00000000
Si       1.32582682      -1.38310246       1.36078943       0.00000000
Si       1.38538990       1.33240798      -1.36677034       0.00000000
Si       0.07530867      -2.68384757      -2.61444755       0.00000000
Si       2.69581258      -0.01461213       2.68712296       0.00000000
Si      -0.00447975       2.71259453       2.68312595       0.00000000
Si      -2.69198768       2.71417466      -0.02520737       0.00000000
Si       0.05403393       2.73649196      -2.68330100       0.00000000
Si      -2.71915940      -0.03031569       2.70798322       0.00000000
