10
Lattice="16.290000149 0.0 0.0 0.0 16.290000149 0.0 0.0 0.0 29.1751946751" Properties=species:S:1:pos:R:3:initial_magmoms:R:1 pbc="T T T"
Si       1.42981078      -1.21373533       1.38456721       0.00000000
Si      -1.43488349       1.24452343       1.36965869       0.00000000
Si      -1.35820662      -1.41169141      -1.31259201       0.00000000
Si       1.36769701       1.42754158      -1.30048430       0.00000000
H       -1.18845162      -1.45573957       3.06526265       0.00000000
Si      -0.04916974      -2.41810391       2.77193525       0.00000000
Si       2.57406926      -2.64044612      -0.07979416       0.00000000
Si      -0.01437267       2.68377752       2.53625802       0.00000000
Si       2.56644554       0.02564046      -2.77601977       0.00000000
Si      -2.72588229       2.65797416       0.00980287       0.00000000
