10
Lattice="16.290000149 0.0 0.0 0.0 16.290000149 0.0 0.0 0.0 29.1751946751" Properties=species:S:1:pos:R:3:initial_magmoms:R:1 pbc="T T T"
Si      -1.82829188      -1.29567403       0.63613594       0.00000000
Si       1.82270441      -1.45660294      -0.16647366       0.00000000
Si      -1.03179232       0.82709218      -1.95348351       0.00000000
Si       0.65122534       1.77187961       1.58587606       0.00000000
H       -0.00881289      -1.14267835       3.12486758       0.00000000
Si      -2.55924047       2.09072378      -0.73865758       0.00000000
Si       3.44393409       0.23047092      -0.09636567       0.00000000
Si      -3.47956032       0.35859177       0.54006203       0.00000000
Si      -1.36505314      -1.71913259       2.84854931       0.00000000
Si       2.88295536       1.26555382       1.91351349       0.00000000
