10
Lattice="16.290000149 0.0 0.0 0.0 16.290000149 0.0 0.0 0.0 29.1751946751" Properties=species:S:1:pos:R:3:initial_magmoms:R:1 pbc="T T T"
Si       1.13928189      -0.96236434      -0.29332741       0.00000000
Si      -1.88458686       1.64206459      -0.26278098       0.00000000
H       -1.14805079      -1.79955632       1.92538780       0.00000000
Si      -1.52957889       1.40778181       2.10113917       0.00000000
Si      -0.17703288      -2.66294261      -1.43083907       0.00000000
Si       2.42967307      -0.80669710       1.73134358       0.00000000
Si       2.61826240       0.24200424      -1.68069544       0.00000000
Si      -0.24643186       2.70026300      -1.69560396       0.00000000
Si      -1.08280934      -0.72611047       2.98891117       0.00000000
Si      -2.95562179      -0.04926096      -1.64717314       0.00000000
