10
Lattice="16.290000149 0.0 0.0 0.0 16.290000149 0.0 0.0 0.0 29.1751946751" Properties=species:S:1:pos:R:3:initial_magmoms:R:1 pbc="T T T"
Si       1.71331706      -1.63364266      -0.10549750       0.00000000
Si      -2.05547222      -1.01066419      -0.72226112       0.00000000
Si       1.39439143       1.73807786      -0.91420473       0.00000000
Si      -1.00333369       1.24291072       1.84413488       0.00000000
H        0.79889419      -1.46893447      -2.64566500       0.00000000
H       -0.60561334       0.56125567      -3.10155660       0.00000000
Si      -2.35987531       2.65251701       0.53425616       0.00000000
Si       2.15045921      -1.87763429       2.17828101       0.00000000
Si      -3.46485045       0.93968866      -0.70504775       0.00000000
Si       3.57775644      -0.73625914      -1.38774731       0.00000000
