10
Lattice="16.290000149 0.0 0.0 0.0 16.290000149 0.0 0.0 0.0 29.1751946751" Properties=species:S:1:pos:R:3:initial_magmoms:R:1 pbc="T T T"
Si       1.35503479       1.35024553       1.35498357       0.00000000
Si       1.41964093      -1.36366849      -1.27559786       0.00000000
Si      -1.32638068      -1.38598579       1.38249577       0.00000000
Si      -1.34034121       1.34571691      -1.41359653       0.00000000
Si       0.02875185      -2.71409321      -2.55628679       0.00000000
Si      -2.68960934       2.62146827       0.04367527       0.00000000
Si       2.69436602       2.70365132      -0.03180096       0.00000000
Si       2.69970914      -0.02992473       2.71057981       0.00000000
Si       0.01000206       2.68117112       2.74138882       0.00000000
Si      -2.71953407      -0.05637969      -2.71920692       0.00000000
