10
Lattice="16.290000149 0.0 0.0 0.0 16.290000149 0.0 0.0 0.0 29.1751946751" Properties=species:S:1:pos:R:3:initial_magmoms:R:1 pbc="T T T"
Si      -1.35899326      -1.36506943      -1.33138083       0.00000000
Si      -1.34728075       1.34767171       1.36659529       0.00000000
Si       1.33566598      -1.37546245       1.35390408       0.00000000
Si       1.33858189       1.35764119      -1.38024928       0.00000000
Si      -2.70296714       2.67737555      -0.02173552       0.00000000
Si       2.67823892      -0.01472616       2.70809992       0.00000000
Si       0.00447975      -2.71259453      -2.68312595       0.00000000
Si      -2.68750793       0.00158013      -2.70833332       0.00000000
Si       2.69045317       2.71015103      -0.01896388       0.00000000
Si      -2.70111008      -0.02722059       2.70955868       0.00000000
