10
Lattice="16.290000149 0.0 0.0 0.0 16.290000149 0.0 0.0 0.0 29.1751946751" Properties=species:S:1:pos:R:3:initial_magmoms:R:1 pbc="T T T"
Si       1.35428545       1.39761685      -1.31949486       0.00000000
Si      -1.35146728       1.36950031       1.35848459       0.00000000
Si       1.37639098      -1.34677576       1.35970995       0.00000000
Si      -1.36378252      -1.36681246      -1.36331892       0.00000000
Si       2.73642681       0.04347801      -2.64501731       0.00000000
Si      -2.70980406      -2.69742854       0.01642563       0.00000000
Si       2.69184107       2.72385092       0.08387868       0.00000000
Si      -2.69810947       0.02164941       2.72674287       0.00000000
Si       0.02091636      -2.69099399       2.73494110       0.00000000
Si      -2.71761348       2.71687880      -0.01371234       0.00000000
