10
Lattice="16.290000149 0.0 0.0 0.0 16.290000149 0.0 0.0 0.0 29.1751946751" Properties=species:S:1:pos:R:3:initial_magmoms:R:1 pbc="T T T"
Si       1.43141860      -1.22567590      -1.28683031       0.00000000
Si      -1.22266225       1.53323110      -1.24222144       0.00000000
Si       1.48613671       1.01359639       1.47040064       0.00000000
Si      -1.12089862      -1.44148582       1.55057407       0.00000000
H        2.07479216      -2.06843906      -0.20775656       0.00000000
Si      -1.99726805       0.33951618       2.83372831       0.00000000
Si      -0.12473253       1.80270029       2.99255807       0.00000000
Si       2.46492137      -0.84621664       2.36558313       0.00000000
Si      -0.00821016      -2.55588473      -2.49710491       0.00000000
Si       0.69866182      -2.33023565       2.69812200       0.00000000
