10
Lattice="16.290000149 0.0 0.0 0.0 16.290000149 0.0 0.0 0.0 29.1751946751" Properties=species:S:1:pos:R:3:initial_magmoms:R:1 pbc="T T T"
Si       1.32366025       1.34915736      -1.33202852       0.00000000
Si      -1.33076269       1.41899259       1.28823072       0.00000000
Si       1.43257519      -1.34590913       1.26328593       0.00000000
Si      -1.36267480      -1.28144851      -1.40881472       0.00000000
Si       0.05207913      -2.68890562       2.59933479       0.00000000
Si      -2.68024259       0.04656334       2.62661360       0.00000000
Si       2.77850388       0.04200865       2.60406118       0.00000000
Si       0.05390361       2.77055761       2.61360146       0.00000000
Si      -0.04046436      -2.76836824      -2.61709374       0.00000000
Si      -2.71220357      -2.67629716      -0.09683247       0.00000000
