10
Lattice="16.290000149 0.0 0.0 0.0 16.290000149 0.0 0.0 0.0 29.1751946751" Properties=species:S:1:pos:R:3:initial_magmoms:R:1 pbc="T T T"
Si      -1.27673691       1.37189657      -1.38851170       0.00000000
Si       1.29889945       1.32900989       1.42626440       0.00000000
Si      -1.41485330      -1.38798946       1.25556034       0.00000000
Si       1.32633181      -1.31588992      -1.42054315       0.00000000
Si       2.64326429       2.66041766       0.07985834       0.00000000
Si      -0.04870710      -2.73536796       2.62775727       0.00000000
Si       2.65704563      -2.70725141      -0.05022218       0.00000000
Si      -2.70079324       2.67351482      -0.02416581       0.00000000
Si      -0.10037898      -2.67498092      -2.70014647       0.00000000
Si      -2.69520415      -0.04465089       2.71446595       0.00000000
