10
Lattice="16.290000149 0.0 0.0 0.0 16.290000149 0.0 0.0 0.0 29.1751946751" Properties=species:S:1:pos:R:3:initial_magmoms:R:1 pbc="T T T"
Si      -1.67725100       1.68029723       0.24956462       0.00000000
Si       0.35500797      -0.23428278       2.36392015       0.00000000
Si       1.63815500       1.05819841      -1.43282299       0.00000000
Si      -1.07103493      -1.69132556      -1.38439216       0.00000000
H        1.88458686      -1.64206459       0.26278098       0.00000000
H        0.53835192       2.46205433       1.37569795       0.00000000
H       -1.08826975       0.05799240       2.79375829       0.00000000
Si      -2.41302143      -0.27673452      -2.75623899       0.00000000
Si       0.34715619       2.47164914      -2.79267881       0.00000000
Si      -3.53940978       0.83818567      -1.00304319       0.00000000
