10
Lattice="16.290000149 0.0 0.0 0.0 16.290000149 0.0 0.0 0.0 29.1751946751" Properties=species:S:1:pos:R:3:initial_magmoms:R:1 pbc="T T T"
Si       1.31169508       1.33713615      -1.36627437       0.00000000
Si      -1.27566991      -1.46285830      -1.29841286       0.00000000
Si      -1.30336291       1.41254990       1.33809113       0.00000000
Si       1.23132853      -1.49177305       1.36131458       0.00000000
H       -1.92184535      -2.28952694      -0.22155643       0.00000000
Si      -2.59416623      -0.02770929       2.61739424       0.00000000
Si       2.54305310       2.69813390       0.07888973       0.00000000
Si      -0.15745914       2.63030234      -2.63810863       0.00000000
Si       2.69080829      -0.05833449      -2.66457053       0.00000000
Si       2.57238487      -2.79298569      -0.06281419       0.00000000
