10
Lattice="16.290000149 0.0 0.0 0.0 16.290000149 0.0 0.0 0.0 29.1751946751" Properties=species:S:1:pos:R:3:initial_magmoms:R:1 pbc="T T T"
Si      -1.35040843      -1.34304535      -1.31215438       0.00000000
Si       1.39502674      -1.28313073       1.35985582       0.00000000
Si       1.38394954       1.33550308      -1.34083360       0.00000000
Si      -1.18346851       1.45130869       1.41210860       0.00000000
Si       2.27349758       0.60593914       2.42903918       0.00000000
Si       0.67176703       2.38270574       2.51875291       0.00000000
Si      -2.66045024       0.08451252      -2.60925436       0.00000000
Si       0.08757504      -2.67758732      -2.59344141       0.00000000
Si       0.01949913      -2.60250671       2.71702753       0.00000000
Si      -2.72248256      -2.59672376       0.12008510       0.00000000
