10
Lattice="16.290000149 0.0 0.0 0.0 16.290000149 0.0 0.0 0.0 29.1751946751" Properties=species:S:1:pos:R:3:initial_magmoms:R:1 pbc="T T T"
Si       1.35187127       1.35250984       1.36128541       0.00000000
Si       1.38675957      -1.36132273      -1.32411621       0.00000000
Si      -1.33858189      -1.35764119       1.38024928       0.00000000
Si      -1.34467435       1.38017026      -1.35559625       0.00000000
Si      -2.68970708       2.71109585       0.03080901       0.00000000
Si       0.05128776      -2.73782774      -2.66964701       0.00000000
Si      -2.69970914       0.02992473      -2.71057981       0.00000000
Si       2.71010216       2.70402599      -0.00210061       0.00000000
Si       2.69026094      -0.00671148       2.72470061       0.00000000
Si      -2.69757515      -2.72271062       0.04886845       0.00000000
