10
Lattice="16.290000149 0.0 0.0 0.0 16.290000149 0.0 0.0 0.0 29.1751946751" Properties=species:S:1:pos:R:3:initial_magmoms:R:1 pbc="T T T"
Si       1.34912152       1.36135531       1.35008213       0.00000000
Si      -1.34225529       1.35773893      -1.36510736       0.00000000
Si       1.36091548      -1.35612622      -1.35049059       0.00000000
Si      -1.36730442      -1.36578619       1.34325514       0.00000000
Si      -0.02814912      -2.70068654      -2.68035431       0.00000000
Si       2.69301395      -0.02169828       2.69316222       0.00000000
Si      -2.67772709      -0.01876608      -2.71063816       0.00000000
Si      -0.03875391       2.71235018       2.68370946       0.00000000
Si       2.69697242       2.70953201      -0.02786231       0.00000000
Si       2.69273702      -2.72644103       0.01867212       0.00000000
