10
Lattice="16.290000149 0.0 0.0 0.0 16.290000149 0.0 0.0 0.0 29.1751946751" Properties=species:S:1:pos:R:3:initial_magmoms:R:1 pbc="T T T"
Si      -1.34912152      -1.36135531      -1.35008213       0.00000000
Si       1.34389243      -1.38305359       1.34308009       0.00000000
Si      -1.38787543       1.35099487       1.33362732       0.00000000
Si       1.34785090       1.34817670      -1.37794444       0.00000000
Si       2.71129133      -0.02490741       2.67215608       0.00000000
Si      -0.03673395       2.73719244       2.65634312       0.00000000
Si      -2.69137681      -0.00361638      -2.71518949       0.00000000
Si       2.71378370       2.70339068      -0.03162591       0.00000000
Si       0.01179396      -2.71748153      -2.70057272       0.00000000
Si      -0.03142341      -2.71959923       2.70483230       0.00000000
