10
Lattice="16.290000149 0.0 0.0 0.0 16.290000149 0.0 0.0 0.0 29.1751946751" Properties=species:S:1:pos:R:3:initial_magmoms:R:1 pbc="T T T"
Si       0.88215238      -0.85247200       0.88861808       0.00000000
H       -1.89951176      -0.42388209      -1.24003330       0.00000000
Si       0.89660161       0.99015508      -2.06650821       0.00000000
Si      -0.99022024      -0.35085402      -2.45588036       0.00000000
Si      -0.72057187       2.51903350      -0.98542138       0.00000000
Si      -1.44373384       2.18197873       1.28207475       0.00000000
Si       1.91428679      -2.34124769      -0.58067390       0.00000000
Si      -0.51271146      -2.08279055       2.31601448       0.00000000
Si       2.77729842       0.44997867       1.52023187       0.00000000
Si       2.82838386      -0.50445243      -1.75124106       0.00000000
