10
Lattice="16.290000149 0.0 0.0 0.0 16.290000149 0.0 0.0 0.0 29.1751946751" Properties=species:S:1:pos:R:3:initial_magmoms:R:1 pbc="T T T"
Si      -1.36637263      -1.35104374       1.35073274       0.00000000
Si       1.30634398       1.29562516       1.47408546       0.00000000
Si      -1.36948402       1.41222898      -1.30461259       0.00000000
Si       1.36199062      -1.34763913      -1.39009591       0.00000000
Si       2.66268197       2.63625959       0.15843881       0.00000000
Si       2.70760979      -2.69882948      -0.00036177       0.00000000
Si      -2.72951984       0.02197521       2.70011467       0.00000000
Si      -2.71119359      -2.71930601      -0.01273497       0.00000000
Si      -0.01674612      -2.66896991       2.76141175       0.00000000
Si      -2.78238090       0.11648979      -2.64839784       0.00000000
