10
Lattice="16.290000149 0.0 0.0 0.0 16.290000149 0.0 0.0 0.0 29.1751946751" Properties=species:S:1:pos:R:3:initial_magmoms:R:1 pbc="T T T"
H       -1.13243194       0.06165765       1.00336412       0.00000000
Si       0.22317300      -2.13496742      -0.91181236       0.00000000
Si       2.06255837       0.69320467       0.90203867       0.00000000
Si      -0.22778307       1.51295005      -1.83710366       0.00000000
H       -0.45768384       0.98300377       2.62252907       0.00000000
H       -2.05930037       1.82687465       1.45423758       0.00000000
Si       2.34857819      -1.55020528      -1.91406782       0.00000000
H        2.43175493      -2.37258965       0.65909682       0.00000000
Si       3.31972284       0.44618310      -1.03694477       0.00000000
Si       1.72380782       2.81383689       1.83421531       0.00000000
