10
Lattice="16.290000149 0.0 0.0 0.0 16.290000149 0.0 0.0 0.0 29.1751946751" Properties=species:S:1:pos:R:3:initial_magmoms:R:1 pbc="T T T"
Si       1.36637263       1.35104374      -1.35073274       0.00000000
Si      -1.34482096      -1.36826227      -1.36346771       0.00000000
Si       1.34962651      -1.31792617       1.41067901       0.00000000
Si      -1.36314721       1.37301895       1.34938193       0.00000000
Si       2.67271661       2.64666890       0.12335272       0.00000000
Si      -2.69913899      -2.68398929       0.03623559       0.00000000
Si       0.07825716      -2.74473471      -2.65891638       0.00000000
Si       2.76657960      -2.64906353       0.10940698       0.00000000
Si      -0.00311139       2.76327273      -2.65534533       0.00000000
Si      -2.71603172      -0.01526373      -2.72454598       0.00000000
