10
Lattice="16.290000149 0.0 0.0 0.0 16.290000149 0.0 0.0 0.0 29.1751946751" Properties=species:S:1:pos:R:3:initial_magmoms:R:1 pbc="T T T"
Si      -1.35547462      -1.34421823       1.37523115       0.00000000
Si       1.33545421       1.35158131       1.39355317       0.00000000
Si      -1.37639098       1.34677576      -1.35970995       0.00000000
Si       1.36314721      -1.37301895      -1.34938193       0.00000000
Si       2.71277372      -2.69094512       0.06129708       0.00000000
Si       2.69930189       2.71347419       0.06389368       0.00000000
Si      -2.71622720      -2.69824304       0.02135624       0.00000000
Si      -0.02210553       2.74439262      -2.67920481       0.00000000
Si       2.72951984      -0.02197521      -2.70011467       0.00000000
Si      -2.72785827       2.71627607      -0.00122536       0.00000000
