10
Lattice="16.290000149 0.0 0.0 0.0 16.290000149 0.0 0.0 0.0 29.1751946751" Properties=species:S:1:pos:R:3:initial_magmoms:R:1 pbc="T T T"
Si      -1.56442645       1.28519956      -1.12461623       0.00000000
Si      -1.41009499      -1.42631983       1.16966273       0.00000000
Si       1.06210801      -1.10750824      -1.87027585       0.00000000
Si       1.56087523       1.12285342       1.47045899       0.00000000
Si       2.08717256      -2.44354889      -0.24924369       0.00000000
Si       0.29224260      -3.01953072       1.19393649       0.00000000
Si       0.05374071       2.31441806      -2.51758590       0.00000000
Si       1.83153359       0.76536937      -3.14782845       0.00000000
Si      -2.53547336       2.74106946       0.38610453       0.00000000
Si      -2.35237376      -0.15731253       2.93137769       0.00000000
