10
Lattice="16.290000149 0.0 0.0 0.0 16.290000149 0.0 0.0 0.0 29.1751946751" Properties=species:S:1:pos:R:3:initial_magmoms:R:1 pbc="T T T"
Si      -1.34633593      -1.33330393      -1.39040225       0.00000000
Si      -1.34328970       1.30455208       1.42424548       0.00000000
Si       1.30018636       1.35816247      -1.43278214       0.00000000
Si       1.34820928      -1.38367261       1.36417375       0.00000000
Si       2.69317523       2.64075563       0.00382195       0.00000000
Si      -2.68807808       2.65210976       0.05837956       0.00000000
Si       2.65909817      -0.10485873      -2.71729011       0.00000000
Si      -2.68649795      -2.74160703      -0.01762182       0.00000000
Si       0.01381392       2.64963368       2.79571303       0.00000000
Si       2.71267924      -0.05447376       2.74427716       0.00000000
