10
Lattice="16.290000149 0.0 0.0 0.0 16.290000149 0.0 0.0 0.0 29.1751946751" Properties=species:S:1:pos:R:3:initial_magmoms:R:1 pbc="T T T"
Si       0.73552609      -1.33004593       1.78686397       0.00000000
Si      -1.75620863       0.96984145       1.26413201       0.00000000
Si       1.39370725       1.82443115      -0.74650571       0.00000000
Si       0.10920816      -1.73270216      -1.80445662       0.00000000
H       -2.14633784      -0.25238097      -1.30920769       0.00000000
Si       2.88394905       0.55915426      -2.03141045       0.00000000
Si       2.73383669      -2.21289389       0.81638030       0.00000000
Si      -0.77968828      -3.17914014       1.71949845       0.00000000
Si      -2.78971140       0.59038219      -2.38828144       0.00000000
Si       1.54377073      -3.35993145      -0.87691883       0.00000000
