10
Lattice="16.290000149 0.0 0.0 0.0 16.290000149 0.0 0.0 0.0 29.1751946751" Properties=species:S:1:pos:R:3:initial_magmoms:R:1 pbc="T T T"
H       -1.15709500      -0.47952873      -1.14550567       0.00000000
Si      -1.54393363       1.26410401       1.20023833       0.00000000
Si       1.16352955      -1.48436110       1.38220986       0.00000000
Si       1.68018320       0.79964353      -1.43002217       0.00000000
H       -1.93766294      -2.03100464       0.95292021       0.00000000
Si      -2.48424131      -1.07737174      -1.96783771       0.00000000
Si       3.08956143      -1.15070932      -1.44723553       0.00000000
Si      -0.14581179       2.59783148       2.56138662       0.00000000
Si       2.65817127      -0.09604584       2.55449836       0.00000000
Si       2.78515834       2.51247188      -0.19071825       0.00000000
