10
Lattice="16.290000149 0.0 0.0 0.0 16.290000149 0.0 0.0 0.0 29.1751946751" Properties=species:S:1:pos:R:3:initial_magmoms:R:1 pbc="T T T"
Si      -1.30999294       1.32752750       1.40106870       0.00000000
Si       0.97783984       1.78617245      -1.16011952       0.00000000
Si       1.39087279      -1.31905886       1.36237948       0.00000000
Si      -1.29264409      -1.28375268      -1.50737728       0.00000000
Si      -2.51193431       2.72442759      -0.04155715       0.00000000
Si       1.07525404       1.10156891      -3.38841878       0.00000000
Si      -2.62692542      -2.64878009      -0.09933279       0.00000000
Si      -0.64319437       3.52956085      -1.24135523       0.00000000
Si       0.11378565       2.73104133       2.64912518       0.00000000
Si       0.04134402      -2.71390751       2.67436173       0.00000000
