10
Lattice="16.290000149 0.0 0.0 0.0 16.290000149 0.0 0.0 0.0 29.1751946751" Properties=species:S:1:pos:R:3:initial_magmoms:R:1 pbc="T T T"
Si       0.64617544       0.82666864      -1.07685644       0.00000000
H       -1.43874910      -0.91109971      -0.54861036       0.00000000
H       -0.63130267      -1.65925055       1.10480627       0.00000000
Si      -2.24803631       0.95211793       1.63316905       0.00000000
Si       0.55436500      -2.17124525       1.90388568       0.00000000
Si       1.92184535       2.28952694       0.22155643       0.00000000
Si       1.88361272      -0.53955738      -2.49480007       0.00000000
Si      -2.53430048       1.83884780      -0.60777766       0.00000000
Si      -0.93294460       1.91256005      -2.39863863       0.00000000
Si      -2.28335303      -1.84503800      -1.35868882       0.00000000
