10
Lattice="16.290000149 0.0 0.0 0.0 16.290000149 0.0 0.0 0.0 29.1751946751" Properties=species:S:1:pos:R:3:initial_magmoms:R:1 pbc="T T T"
Si       1.05876856      -1.46510632      -1.47871557       0.00000000
Si      -1.31487994      -1.35695701       1.38564670       0.00000000
Si      -1.44653572       1.35208630      -1.28350434       0.00000000
Si       1.81524359       0.75463426       1.38351691       0.00000000
Si       2.15669828      -1.19563714       2.75606394       0.00000000
Si       0.28416276      -2.65882124       2.59723418       0.00000000
Si       2.43429617      -0.14573034      -2.83588727       0.00000000
Si      -2.70111008       0.12057858       2.60032675       0.00000000
Si       2.28143081      -2.99833743      -0.23649413       0.00000000
Si      -0.14419908       2.58870908      -2.78363450       0.00000000
