10
Lattice="16.290000149 0.0 0.0 0.0 16.290000149 0.0 0.0 0.0 29.1751946751" Properties=species:S:1:pos:R:3:initial_magmoms:R:1 pbc="T T T"
Si       0.97878466      -1.85981303       0.89518250       0.00000000
Si      -1.48613671      -1.01359639      -1.47040064       0.00000000
Si      -1.61086924       0.78910390       1.52215743       0.00000000
Si       1.66032569       1.52428789      -0.73410625       0.00000000
H        0.90490951       2.07588359       1.76259021       0.00000000
H        0.25625799       2.50175306       1.72051958       0.00000000
H       -0.89241508       0.86859910       2.84749900       0.00000000
Si      -1.95232394       2.73937529       0.14961040       0.00000000
Si       0.17308125       3.32413743      -0.85264506       0.00000000
Si      -0.05471811      -2.23927229      -2.75723095       0.00000000
