10
Lattice="16.290000149 0.0 0.0 0.0 16.290000149 0.0 0.0 0.0 29.1751946751" Properties=species:S:1:pos:R:3:initial_magmoms:R:1 pbc="T T T"
Si      -1.35928648       1.35666053       1.34135875       0.00000000
Si       1.34947990       1.37242925      -1.33838288       0.00000000
Si       1.38168523      -1.35963183       1.32236570       0.00000000
Si      -1.35573526      -1.37222400      -1.33771185       0.00000000
Si       2.68024259      -0.04656334      -2.62661360       0.00000000
Si       0.00447975      -2.71513903       2.65450509       0.00000000
Si      -2.72766278      -0.01283326      -2.65033303       0.00000000
Si       0.01321119       2.70486982       2.68385533       0.00000000
Si       2.73147464       0.01038976       2.67378989       0.00000000
Si      -2.70518258       0.00168439       2.70585343       0.00000000
