10
Lattice="16.290000149 0.0 0.0 0.0 16.290000149 0.0 0.0 0.0 29.1751946751" Properties=species:S:1:pos:R:3:initial_magmoms:R:1 pbc="T T T"
Si      -1.37779192      -1.36415719      -1.30596924       0.00000000
Si      -1.38564370       1.31408173       1.35898057       0.00000000
Si       1.32851467      -1.36664956       1.37695249       0.00000000
Si       1.32638068       1.38598579      -1.38249577       0.00000000
Si      -2.70055622       0.02832831      -2.64120120       0.00000000
Si      -0.01545921       2.67579542       2.68659780       0.00000000
Si       2.68750793      -0.00158013       2.70833332       0.00000000
Si      -0.05535342      -2.72357399      -2.67729091       0.00000000
Si       2.74602162       0.02231730      -2.65809364       0.00000000
Si       2.69198768      -2.71417466       0.02520737       0.00000000
