10
Lattice="16.290000149 0.0 0.0 0.0 16.290000149 0.0 0.0 0.0 29.1751946751" Properties=species:S:1:pos:R:3:initial_magmoms:R:1 pbc="T T T"
Si       1.35928648      -1.35666053      -1.34135875       0.00000000
Si       1.37249767       1.34820928       1.34249658       0.00000000
Si      -1.34589610      -1.35497615       1.36449468       0.00000000
Si      -1.33182154       1.37031481      -1.36916271       0.00000000
Si       0.00027693       2.70474275       2.67449010       0.00000000
Si       2.70876638       0.01576872      -2.67974163       0.00000000
Si       0.04378752      -2.70348842       2.69733427       0.00000000
Si       0.00355122      -2.72888454      -2.67907060       0.00000000
Si      -2.69273702       2.72644103      -0.01867212       0.00000000
Si      -2.72088614       0.02575449      -2.69902643       0.00000000
