10
Lattice="16.290000149 0.0 0.0 0.0 16.290000149 0.0 0.0 0.0 29.1751946751" Properties=species:S:1:pos:R:3:initial_magmoms:R:1 pbc="T T T"
Si      -1.37881819       1.36594909       1.31200850       0.00000000
Si      -1.37824804      -1.33568227      -1.34442215       0.00000000
Si       1.35641944       1.35534430      -1.35798861       0.00000000
Si       1.35444835      -1.35164647       1.36927941       0.00000000
Si      -0.00166158       2.70607853       2.64455635       0.00000000
Si      -0.00666261      -2.68084532      -2.68359276       0.00000000
Si      -2.73241946       0.01470987       2.67434422       0.00000000
Si       2.71489142      -2.70322778       0.01622141       0.00000000
Si      -0.00019548       2.72689715      -2.69505861       0.00000000
Si      -2.72759762      -2.69996978       0.01327471       0.00000000
