10
Lattice="16.290000149 0.0 0.0 0.0 16.290000149 0.0 0.0 0.0 29.1751946751" Properties=species:S:1:pos:R:3:initial_magmoms:R:1 pbc="T T T"
Si      -1.38168523       1.35963183      -1.32236570       0.00000000
Si      -1.37720548      -1.35550720       1.33213939       0.00000000
Si       1.34978941       1.37002159       1.35142419       0.00000000
Si       1.35063649      -1.37583712      -1.34964451       0.00000000
Si      -0.00778662      -2.69716790       2.68583925       0.00000000
Si      -0.03220533       2.73206109      -2.66074858       0.00000000
Si      -2.73742049      -0.01259217      -2.66007755       0.00000000
Si       2.72430704       0.02399517       2.68855254       0.00000000
Si      -2.69718419       0.01280394       2.71632732       0.00000000
Si       2.73113256      -0.03284064      -2.68569337       0.00000000
