10
Lattice="16.290000149 0.0 0.0 0.0 16.290000149 0.0 0.0 0.0 29.1751946751" Properties=species:S:1:pos:R:3:initial_magmoms:R:1 pbc="T T T"
Si       1.36044307      -1.35158131      -1.35305800       0.00000000
Si       1.37401264       1.36410832       1.33164341       0.00000000
Si      -1.35444835       1.35164647      -1.36927941       0.00000000
Si      -1.35355240      -1.34710156       1.37491022       0.00000000
Si       0.00060273       2.72305271       2.65278375       0.00000000
Si       2.68424993      -2.71622720       0.03961991       0.00000000
Si      -2.71360451      -2.69324201       0.00755638       0.00000000
Si      -2.72393237       0.04004082       2.68578090       0.00000000
Si       0.00066789      -2.69544116      -2.71653155       0.00000000
Si       2.71612946       0.02625948      -2.70929610       0.00000000
