10
Lattice="16.290000149 0.0 0.0 0.0 16.290000149 0.0 0.0 0.0 29.1751946751" Properties=species:S:1:pos:R:3:initial_magmoms:R:1 pbc="T T T"
Si      -1.37340991       1.35894439       1.32114034       0.00000000
Si      -1.37401264      -1.36410832      -1.33164341       0.00000000
Si       1.35382933       1.37489230      -1.34296339       0.00000000
Si       1.35953083      -1.32545215       1.39159844       0.00000000
Si      -0.01383021       2.66706398       2.71087156       0.00000000
Si       2.68309334      -2.69640227       0.01800110       0.00000000
Si      -0.01356957      -2.71568963      -2.68470141       0.00000000
Si      -2.71459820       0.02614545       2.69447510       0.00000000
Si       2.70111008       0.02722059      -2.70955868       0.00000000
Si      -2.73012258       2.69361668      -0.05636648       0.00000000
