10
Lattice="16.290000149 0.0 0.0 0.0 16.290000149 0.0 0.0 0.0 29.1751946751" Properties=species:S:1:pos:R:3:initial_magmoms:R:1 pbc="T T T"
Si       1.34436484       1.33140778      -1.34640606       0.00000000
Si      -1.35250984       1.39524829       1.29266535       0.00000000
Si       1.37192752      -1.35939074       1.31262118       0.00000000
Si      -1.29889945      -1.32900989      -1.42626440       0.00000000
Si      -2.68079320       0.01233968       2.65103324       0.00000000
Si      -0.01664838      -2.71849803       2.61605218       0.00000000
Si       0.03655476       2.73980861       2.62252907       0.00000000
Si       2.72766278       0.01283326       2.65033303       0.00000000
Si      -2.57563636       0.04288668      -2.81477610       0.00000000
Si      -2.64408694       2.74937084      -0.13689001       0.00000000
