10
Lattice="16.290000149 0.0 0.0 0.0 16.290000149 0.0 0.0 0.0 29.1751946751" Properties=species:S:1:pos:R:3:initial_magmoms:R:1 pbc="T T T"
H        0.64865152      -0.42586947       0.04207063       0.00000000
H       -1.14867307      -1.63315396       1.12697942       0.00000000
Si      -1.86712724      -1.71264917      -0.19836215       0.00000000
Si       0.85496437       1.74213407       1.75800971       0.00000000
Si      -0.08317674       0.82238437      -2.57316464       0.00000000
Si      -2.20858193       0.23762223      -1.57090918       0.00000000
Si       2.63275724       0.19308537       1.12776715       0.00000000
Si       1.40406769      -0.97746517      -2.45462583       0.00000000
Si      -0.25625799      -2.50175306      -1.72051958       0.00000000
Si      -0.36919656       3.06579432       0.24294185       0.00000000
