10
Lattice="16.290000149 0.0 0.0 0.0 16.290000149 0.0 0.0 0.0 29.1751946751" Properties=species:S:1:pos:R:3:initial_magmoms:R:1 pbc="T T T"
Si       1.36883223      -1.35558865       1.34100865       0.00000000
Si       1.39901046       1.33446052      -1.33298547       0.00000000
Si      -1.35026182       1.36295173       1.35898057       0.00000000
Si      -1.35710362      -1.34508160      -1.37146755       0.00000000
Si       0.08094501       2.76903450      -2.60648272       0.00000000
Si       2.69886532      -2.70410744      -0.05143587       0.00000000
Si       0.02063943      -2.70868493       2.69844293       0.00000000
Si      -2.71021619       0.00086337       2.70273168       0.00000000
Si       2.68294348       0.01163106       2.73497027       0.00000000
Si      -2.71212212      -2.71269227      -0.02042264       0.00000000
