10
Lattice="16.290000149 0.0 0.0 0.0 16.290000149 0.0 0.0 0.0 29.1751946751" Properties=species:S:1:pos:R:3:initial_magmoms:R:1 pbc="T T T"
Si       1.35250984      -1.39524829      -1.29266535       0.00000000
Si       1.38906460       1.34456032       1.32986372       0.00000000
Si      -1.32828335      -1.38290861       1.35836789       0.00000000
Si      -1.29157710       1.35412255      -1.42955536       0.00000000
Si      -2.64957797       2.68192046      -0.03028385       0.00000000
Si       2.69687468      -0.06384051      -2.63907141       0.00000000
Si       0.02814912       2.70068654       2.68035431       0.00000000
Si      -2.64718285      -0.05074335      -2.74309557       0.00000000
Si      -2.70914105      -0.03358998       2.69727592       0.00000000
Si      -2.64159375      -2.76890907      -0.00446380       0.00000000
