10
Lattice="16.290000149 0.0 0.0 0.0 16.290000149 0.0 0.0 0.0 29.1751946751" Properties=species:S:1:pos:R:3:initial_magmoms:R:1 pbc="T T T"
Si      -1.54512280      -1.31018842      -1.18789723       0.00000000
Si      -1.40686957       1.17766927       1.47183022       0.00000000
Si       1.38929266      -1.31150791       1.43180185       0.00000000
Si       0.77843395       1.50083681      -1.70849940       0.00000000
H        1.16797672      -2.08608113      -2.23884609       0.00000000
Si      -1.29044494       2.22317125      -2.55452170       0.00000000
Si      -0.18826353      -2.66253536      -2.51516436       0.00000000
Si      -2.57600777       0.23519502      -2.66938444       0.00000000
Si       0.03438819       2.62298161       2.74818664       0.00000000
H       -0.60792652       3.78375978       0.02126872       0.00000000
