10
Lattice="16.290000149 0.0 0.0 0.0 16.290000149 0.0 0.0 0.0 29.1751946751" Properties=species:S:1:pos:R:3:initial_magmoms:R:1 pbc="T T T"
Si      -0.45514260      -1.28308186       0.66376485       0.00000000
H        0.51997680      -1.52594947      -1.82668811       0.00000000
Si       1.55279539      -0.41835978      -2.03928776       0.00000000
Si       2.71486210      -0.58280734      -0.01890553       0.00000000
Si      -1.26671041      -0.28825155       2.60064768       0.00000000
Si      -2.32909535      -1.97926760      -0.62303628       0.00000000
Si       1.55577646      -2.64189593       0.58227854       0.00000000
Si      -2.76529269       1.02367990       1.29952152       0.00000000
Si      -1.85119562       2.86047516       0.12895436       0.00000000
Si       0.29515851       1.22451931      -3.19658020       0.00000000
