10
Lattice="16.290000149 0.0 0.0 0.0 16.290000149 0.0 0.0 0.0 29.1751946751" Properties=species:S:1:pos:R:3:initial_magmoms:R:1 pbc="T T T"
Si       1.36998575       1.36849033       1.32633353       0.00000000
Si       1.38085770      -1.34931863      -1.33890803       0.00000000
Si      -1.32582682       1.38310246      -1.36078943       0.00000000
Si      -1.35039214      -1.35180774       1.37400579       0.00000000
Si      -2.68172498      -2.70682787      -0.00977369       0.00000000
Si      -2.69571809       0.03575655      -2.70057272       0.00000000
Si       0.00535941       2.72023454       2.67624061       0.00000000
Si       2.69944850       0.00809613       2.70016427       0.00000000
Si       2.70914105       0.03358998      -2.69727592       0.00000000
Si      -2.68929983       2.73062756      -0.00904431       0.00000000
