10
Lattice="16.290000149 0.0 0.0 0.0 16.290000149 0.0 0.0 0.0 29.1751946751" Properties=species:S:1:pos:R:3:initial_magmoms:R:1 pbc="T T T"
Si       1.32043483      -1.33607323      -1.40711964       0.00000000
Si       1.39162050       1.37547874       1.31180428       0.00000000
Si      -1.33973848       1.36565587      -1.37581466       0.00000000
Si      -1.35565381      -1.34710156       1.39366987       0.00000000
Si      -0.01288539       2.69371442       2.62565082       0.00000000
Si       2.64961739      -2.69529455      -0.04172053       0.00000000
Si      -2.69938334      -2.67401981      -0.01406244       0.00000000
Si      -2.72318303       2.70953201      -0.04011589       0.00000000
Si       2.67103874       0.02958264      -2.77076824       0.00000000
Si       0.03549575      -2.70278795       2.74471479       0.00000000
