10
Lattice="10.86 0.0 0.0 0.0 10.86 0.0 0.0 0.0 10.86" Properties=species:S:1:pos:R:3:initial_magmoms:R:1 pbc="T T T"
Si      -1.58255178       1.31949000       0.74811282       0.00000000
Si      -1.47939264      -1.04756646      -1.56056028       0.00000000
Si       1.04248398       1.67550252      -1.57239768       0.00000000
Si      -0.00676578      -1.84413660       1.95175920       0.00000000
Si      -0.24034266       2.83567632       2.28100182       0.00000000
Si      -2.95534266       0.12067632       2.28100182       0.00000000
Si       2.47465734       2.83567632      -0.43399818       0.00000000
Si      -2.95534266      -2.59432368      -0.43399818       0.00000000
Si       2.47465734       0.12067632      -3.14899818       0.00000000
Si      -0.24034266      -2.59432368      -3.14899818       0.00000000
