10
Lattice="10.86 0.0 0.0 0.0 10.86 0.0 0.0 0.0 10.86" Properties=species:S:1:pos:R:3:initial_magmoms:R:1 pbc="T T T"
Si       1.36264764       1.17256506       1.46169084       0.00000000
Si       1.36264764      -1.54243494      -1.25330916       0.00000000
Si      -1.35235236      -1.54243494       1.46169084       0.00000000
Si       0.07342446       2.57013846      -2.51204832       0.00000000
Si       2.72014764       2.53006506       0.10419084       0.00000000
Si      -2.70099060       2.62519866       0.19632708       0.00000000
Si       2.72014764      -0.18493494      -2.61080916       0.00000000
Si       0.00514764       2.53006506       2.81919084       0.00000000
Si       0.27078324      -2.93065788      -2.44532448       0.00000000
Si      -2.90668986      -2.49283698      -0.01067538       0.00000000
