10
Lattice="16.28999089631971 0.0 0.0 0.0 16.28999089631971 0.0 0.0 0.0 34.49183129400761" Properties=species:S:1:pos:R:3:initial_magmoms:R:1 pbc="T T T"
Si      -0.72151016      -1.90342853      -1.11119256       0.00000000
Si       1.45616310      -1.23748928       1.41093399       0.00000000
Si       1.45901385       0.98214039      -1.59666022       0.00000000
Si      -1.28778056       1.48043520       1.40929907       0.00000000
Si       0.04727358       2.23081776      -3.00834268       0.00000000
Si       2.68615584       2.66616801      -0.08194919       0.00000000
Si       0.08379902      -2.59523225       2.79127025       0.00000000
Si      -2.71600631      -2.69113148      -0.13338344       0.00000000
Si      -2.63488211       0.12132792       2.79492639       0.00000000
Si       2.99033901      -2.51977697      -0.16484000       0.00000000
