10
Lattice="16.28999089631971 0.0 0.0 0.0 16.28999089631971 0.0 0.0 0.0 34.49183129400761" Properties=species:S:1:pos:R:3:initial_magmoms:R:1 pbc="T T T"
Si       1.35702216       1.35670288      -1.35753025       0.00000000
Si       1.35439947      -1.35795689       1.35987570       0.00000000
Si      -1.35843939      -1.35835768      -1.35718534       0.00000000
Si      -1.35913986       1.35916267       1.35828908       0.00000000
Si       2.71336014       2.71497937      -0.00065535       0.00000000
Si      -0.00073305       2.71414858      -2.71443966       0.00000000
Si       2.71425609      -0.00097088      -2.71492254       0.00000000
Si      -2.71477411       2.71449067      -0.00055187       0.00000000
Si      -2.71574337      -2.71367032      -0.00117272       0.00000000
Si      -2.71506570      -0.00103604      -2.71499153       0.00000000
