10
Lattice="16.28999089631971 0.0 0.0 0.0 16.28999089631971 0.0 0.0 0.0 34.49183129400761" Properties=species:S:1:pos:R:3:initial_magmoms:R:1 pbc="T T T"
Si      -1.41261993      -1.72704204       0.78144737       0.00000000
Si      -1.06365555       0.59153714      -2.04912635       0.00000000
Si      -0.17896194       1.63826738       1.79436954       0.00000000
Si       2.28496572      -1.26459325       0.33688190       0.00000000
Si       0.59333067      -2.49959529       1.63070571       0.00000000
Si       2.33525295       2.62845503       0.41790326       0.00000000
Si       0.81653625       1.55196296      -3.20808702       0.00000000
Si       3.66653691       0.68966810      -0.26810515       0.00000000
Si      -2.82209589      -0.78629061       2.47230687       0.00000000
Si      -2.43481743       1.52984114       2.60596279       0.00000000
