10
Lattice="16.28999089631971 0.0 0.0 0.0 16.28999089631971 0.0 0.0 0.0 34.49183129400761" Properties=species:S:1:pos:R:3:initial_magmoms:R:1 pbc="T T T"
Si       1.35408996      -1.35242838      -1.35687491       0.00000000
Si      -1.35690813      -1.34410419       1.36715348       0.00000000
Si      -1.35734796       1.36287027      -1.35525379       0.00000000
Si       1.37647242       1.35436689       1.38277829       0.00000000
Si      -0.09606213       2.54966193       2.80273879       0.00000000
Si       2.71010214      -2.71112841       0.00507030       0.00000000
Si      -0.00224802      -2.71070487      -2.71374982       0.00000000
Si       2.71235016       0.00387702      -2.71343939       0.00000000
Si      -2.71841004      -2.70824508       0.00206951       0.00000000
Si      -2.71704168       0.00394218      -2.71354287       0.00000000
