10
Lattice="16.28999089631971 0.0 0.0 0.0 16.28999089631971 0.0 0.0 0.0 34.49183129400761" Properties=species:S:1:pos:R:3:initial_magmoms:R:1 pbc="T T T"
Si       1.84376736       0.78706764      -1.29134039       0.00000000
Si       0.43531767      -0.73186083       2.27121938       0.00000000
Si      -1.08339903      -1.80835290      -1.35477091       0.00000000
Si      -1.89459216       1.65056796       0.18239291       0.00000000
Si      -2.06461089       0.56207016       2.83829989       0.00000000
Si       0.32234652       2.15353800      -2.81677698       0.00000000
Si       1.76660163      -2.67064776       1.58521096       0.00000000
Si      -2.41103403      -0.54493308      -2.83240179       0.00000000
Si      -1.15018803       3.34883304      -1.39681647       0.00000000
Si      -3.67774443       0.83087145      -1.35987570       0.00000000
