10
Lattice="16.28999089631971 0.0 0.0 0.0 16.28999089631971 0.0 0.0 0.0 34.49183129400761" Properties=species:S:1:pos:R:3:initial_magmoms:R:1 pbc="T T T"
Si      -0.01428633      -2.28411864       0.80938577       0.00000000
Si      -1.55678643       1.40139612       1.59017779       0.00000000
Si       2.49992856      -1.29393099      -0.56708052       0.00000000
Si       0.17001873       1.08849780      -2.65590699       0.00000000
Si       2.06461089      -0.56207016      -2.83829989       0.00000000
Si      -2.27014182      -2.39254488       1.62097901       0.00000000
Si      -0.58852512       3.53281230       1.38788308       0.00000000
Si       3.61036899      -0.57329397       1.53899188       0.00000000
Si       2.75141358       1.34193762       2.64214474       0.00000000
Si       0.16467561      -3.92238602      -0.98498378       0.00000000
