10
Lattice="16.28999089631971 0.0 0.0 0.0 16.28999089631971 0.0 0.0 0.0 34.49183129400761" Properties=species:S:1:pos:R:3:initial_magmoms:R:1 pbc="T T T"
Si       1.64089170       0.28628046       1.66167939       0.00000000
Si      -1.86157233       1.20632337       0.80079729       0.00000000
Si       1.29453372       0.88055595      -1.80861468       0.00000000
Si      -0.80685999      -2.30933556       0.33598512       0.00000000
Si       0.07986987      -0.15193683       3.38347808       0.00000000
Si      -2.24800371       0.20344581       2.88703688       0.00000000
Si       2.15348913      -1.03467564      -2.91176753       0.00000000
Si      -3.68124678       0.53905239      -0.62140518       0.00000000
Si       3.38757066      -1.32866127       1.22135643       0.00000000
Si       0.67543227      -3.46076163       1.79430056       0.00000000
