10
Lattice="16.28999089631971 0.0 0.0 0.0 16.28999089631971 0.0 0.0 0.0 34.49183129400761" Properties=species:S:1:pos:R:3:initial_magmoms:R:1 pbc="T T T"
Si      -1.23010677      -0.04093677       1.94240856       0.00000000
Si      -0.60470109      -1.80279801      -1.30641333       0.00000000
Si      -0.09783774       1.80796194      -1.48404636       0.00000000
Si       2.28794679      -0.04414590       0.51451493       0.00000000
Si       1.73654658       0.92357784      -2.72513213       0.00000000
Si       0.95632074      -1.36458072      -3.02821202       0.00000000
Si       2.19605490       1.41358104       2.39897719       0.00000000
Si      -0.85255344      -2.22373161       2.64742199       0.00000000
Si      -0.10135638       1.68638967       3.13862043       0.00000000
Si      -2.93257467      -1.44741537      -1.80285454       0.00000000
