10
Lattice="16.28999089631971 0.0 0.0 0.0 16.28999089631971 0.0 0.0 0.0 34.49183129400761" Properties=species:S:1:pos:R:3:initial_magmoms:R:1 pbc="T T T"
Si      -1.19229768      -1.32362766       1.64235503       0.00000000
Si      -1.70339643       1.02232782      -1.43248105       0.00000000
Si       1.01942820      -1.24339941      -1.98176377       0.00000000
Si       1.54859256       1.49405364       1.60610409       0.00000000
Si      -2.37560328      -2.90361105       0.25323917       0.00000000
Si      -2.39190957       2.94762663      -0.04894394       0.00000000
Si      -2.44195245       0.09581778       3.11942369       0.00000000
Si       2.68089417       0.20105118      -2.98885682       0.00000000
Si       2.38308039      -3.01400838      -1.34242282       0.00000000
Si       0.26248077      -2.61454500       3.12517003       0.00000000
