10
Lattice="16.28999089631971 0.0 0.0 0.0 16.28999089631971 0.0 0.0 0.0 34.49183129400761" Properties=species:S:1:pos:R:3:initial_magmoms:R:1 pbc="T T T"
Si       1.35511623       1.35716877      -1.35597812       0.00000000
Si      -1.35658233       1.35285192       1.36166928       0.00000000
Si      -1.35975888      -1.35778779      -1.35573668       0.00000000
Si       1.35423657      -1.35783666       1.36153131       0.00000000
Si       2.71148679      -2.71368594       0.00275935       0.00000000
Si       2.71287144      -0.00006516      -2.71312897       0.00000000
Si      -0.00226431       2.71502172      -2.71312897       0.00000000
Si      -0.00283446      -2.71528236      -2.71295651       0.00000000
Si      -2.71495656      -2.71388142       0.00272486       0.00000000
Si       2.71446786       2.71523349       0.00196604       0.00000000
