10
Lattice="16.28999089631971 0.0 0.0 0.0 16.28999089631971 0.0 0.0 0.0 34.49183129400761" Properties=species:S:1:pos:R:3:initial_magmoms:R:1 pbc="T T T"
Si      -1.88827164       0.52444026       1.33907711       0.00000000
Si      -0.68206230      -1.63193220      -1.61249401       0.00000000
Si       0.27763047       2.13302889      -1.05800302       0.00000000
Si       1.87361064      -0.88107723       1.22014921       0.00000000
Si       1.52974503      -0.56527929      -2.79922062       0.00000000
Si       0.27748386      -3.59023455      -0.50168397       0.00000000
Si       2.06231400       1.74636945      -2.55532875       0.00000000
Si       3.43402974       0.83929338       1.20128217       0.00000000
Si       2.48534901      -2.79016749       0.05980887       0.00000000
Si      -3.75434001       0.19539855      -0.13475966       0.00000000
