10
Lattice="16.28999089631971 0.0 0.0 0.0 16.28999089631971 0.0 0.0 0.0 34.49183129400761" Properties=species:S:1:pos:R:3:initial_magmoms:R:1 pbc="T T T"
Si       1.34820927       1.35570267       1.39492632       0.00000000
Si      -1.36862064      -1.35832536       1.39544370       0.00000000
Si      -1.16882379       1.43099505      -1.56280505       0.00000000
Si       1.48279725      -1.33074639      -1.52547108       0.00000000
Si       2.70093087      -2.71119357       0.01815306       0.00000000
Si      -2.70299970       2.71328273       0.01296894       0.00000000
Si      -2.72080467      -2.69754255       0.02683466       0.00000000
Si       2.70396081       2.72378799       0.02964230       0.00000000
Si       2.70813105       0.00087966       2.75604373       0.00000000
Si      -0.00783549      -2.71428867       2.75562982       0.00000000
