10
Lattice="16.28999089631971 0.0 0.0 0.0 16.28999089631971 0.0 0.0 0.0 34.49183129400761" Properties=species:S:1:pos:R:3:initial_magmoms:R:1 pbc="T T T"
Si       0.38610558       2.31929038      -0.00503581       0.00000000
Si      -2.17641893      -0.35650665       0.82080257       0.00000000
Si       0.14188590      -1.05229069      -2.10686571       0.00000000
Si       1.43625672      -1.14823879       1.50563826       0.00000000
Si      -2.12946301      -2.58040672       1.63736264       0.00000000
Si       2.41144128      -0.90836854      -2.71978589       0.00000000
Si       3.63855069      -0.68850241       0.86288263       0.00000000
Si      -0.90708584       3.27451969      -1.74111412       0.00000000
Si      -2.46394248       0.83365867       2.82198525       0.00000000
Si       2.57509062       2.77268995      -0.74981834       0.00000000
