10
Lattice="16.28999089631971 0.0 0.0 0.0 16.28999089631971 0.0 0.0 0.0 34.49183129400761" Properties=species:S:1:pos:R:3:initial_magmoms:R:1 pbc="T T T"
Si       1.26456012      -1.12047507       1.62432472       0.00000000
Si      -2.26955538      -0.14392215       0.61292018       0.00000000
Si       0.27163575      -0.89296893      -2.17105504       0.00000000
Si       0.41487372       2.37767930      -0.00203502       0.00000000
Si      -1.73431485      -0.12041568      -3.02031339       0.00000000
Si      -3.14379081       0.82033575      -1.32945389       0.00000000
Si       0.13691745      -3.21953931      -1.79664600       0.00000000
Si      -2.41144128       0.90836854       2.71978589       0.00000000
Si       1.22710941       0.21986613       3.58266852       0.00000000
Si      -0.50065686       3.24489374      -2.00739121       0.00000000
