10
Lattice="16.28999089631971 0.0 0.0 0.0 16.28999089631971 0.0 0.0 0.0 34.49183129400761" Properties=species:S:1:pos:R:3:initial_magmoms:R:1 pbc="T T T"
Si       1.08843101       0.92852348      -1.84821132       0.00000000
Si      -0.78526827       1.78825593       1.34956264       0.00000000
Si      -1.93203540      -0.11481029      -1.52453980       0.00000000
Si       1.92300029      -1.13447048       1.04786242       0.00000000
Si      -0.73106278       0.88085406      -3.31535668       0.00000000
Si       2.44190195      -0.81701096      -2.42260411       0.00000000
Si      -2.50353747      -2.34427991      -1.01357752       0.00000000
Si      -3.09108519       1.27562592       1.41502817       0.00000000
Si       0.92548214      -2.62979474      -2.44788663       0.00000000
Si       3.74482502      -0.88371851      -0.46208732       0.00000000
