10
Lattice="16.28999089631971 0.0 0.0 0.0 16.28999089631971 0.0 0.0 0.0 34.49183129400761" Properties=species:S:1:pos:R:3:initial_magmoms:R:1 pbc="T T T"
Si       0.03042972      -1.05973359       2.07530567       0.00000000
Si      -1.54904868       1.74298439       0.17677073       0.00000000
Si       1.93347639       1.32196934      -0.22916386       0.00000000
Si      -0.22936320      -1.49334081      -1.84469315       0.00000000
Si       1.39116600       0.42839931       3.25558230       0.00000000
Si      -1.32638067       0.07121988      -3.31735720       0.00000000
Si      -2.32617942       1.82164880      -2.02925904       0.00000000
Si      -1.77095106      -3.03440739      -0.96573732       0.00000000
Si       1.05788889      -3.10515486       1.90226005       0.00000000
Si       3.61958913      -0.03625665      -1.19510813       0.00000000
