10
Lattice="16.28999089631971 0.0 0.0 0.0 16.28999089631971 0.0 0.0 0.0 34.49183129400761" Properties=species:S:1:pos:R:3:initial_magmoms:R:1 pbc="T T T"
Si       1.54904868      -1.74298439      -0.17677073       0.00000000
Si      -0.77713074       0.07866441      -2.20602978       0.00000000
Si       0.91893519       1.92368610       0.97194586       0.00000000
Si      -1.79320320      -0.20841426       1.54488999       0.00000000
Si      -3.27549546       0.94301181       0.08657454       0.00000000
Si       3.48252507      -0.42101505      -0.40593459       0.00000000
Si      -3.02427108      -0.36036738      -1.88542803       0.00000000
Si       2.10768165       0.94169232       2.82912506       0.00000000
Si       1.57947840      -2.80271798       1.89853493       0.00000000
Si      -2.21203539      -2.51818055       1.69927551       0.00000000
