10
Lattice="16.28999089631971 0.0 0.0 0.0 16.28999089631971 0.0 0.0 0.0 34.49183129400761" Properties=species:S:1:pos:R:3:initial_magmoms:R:1 pbc="T T T"
Si      -1.58053725       0.14836932       1.71338268       0.00000000
Si      -1.18874646       0.98199378      -1.85717920       0.00000000
Si       0.83253303      -2.25627740       0.24968651       0.00000000
Si       2.31914214       0.89798625      -0.09223121       0.00000000
Si       2.54905920      -1.32423039      -1.12374449       0.00000000
Si       1.29272553       2.93825988      -1.00295403       0.00000000
Si      -1.36324494      -1.94053322       2.75582988       0.00000000
Si      -2.10768165      -0.94169232      -2.82912506       0.00000000
Si       0.94240908      -2.43456656       2.64604232       0.00000000
Si       2.82576114       0.86841990       2.30560775       0.00000000
