10
Lattice="16.28999089631971 0.0 0.0 0.0 16.28999089631971 0.0 0.0 0.0 34.49183129400761" Properties=species:S:1:pos:R:3:initial_magmoms:R:1 pbc="T T T"
Si       1.36676358       1.34470692       1.38446149       0.00000000
Si      -1.34680833      -1.37134107       1.38221952       0.00000000
Si       1.47732381      -1.30629510      -1.33797338       0.00000000
Si      -1.44068760       1.39134519      -1.50832518       0.00000000
Si      -2.71428867       2.70674640       0.00703289       0.00000000
Si       2.73709467       2.68872966      -0.00034492       0.00000000
Si      -2.72679939      -2.71725345       0.01074076       0.00000000
Si       0.00843822       2.70425403       2.74530296       0.00000000
Si      -2.70775638      -0.01163106       2.74426821       0.00000000
Si       2.74742253      -2.71386513       0.03062186       0.00000000
