10
Lattice="16.28999089631971 0.0 0.0 0.0 16.28999089631971 0.0 0.0 0.0 34.49183129400761" Properties=species:S:1:pos:R:3:initial_magmoms:R:1 pbc="T T T"
Si      -1.35725022       1.35584928       1.35877196       0.00000000
Si       1.35865116       1.35589815      -1.35828908       0.00000000
Si       1.35630540      -1.35819504       1.35908239       0.00000000
Si      -1.35674523      -1.35918873      -1.35822009       0.00000000
Si      -0.00195480       2.69661402       2.72606341       0.00000000
Si      -2.71148679       2.71368594      -0.00275935       0.00000000
Si       0.00138465       2.71362078      -2.71588831       0.00000000
Si      -2.71432125      -0.00159642      -2.71571585       0.00000000
Si      -2.71500543      -2.71549413      -0.00165561       0.00000000
Si      -2.69262297      -0.00869886       2.73799759       0.00000000
