10
Lattice="16.28999089631971 0.0 0.0 0.0 16.28999089631971 0.0 0.0 0.0 34.49183129400761" Properties=species:S:1:pos:R:3:initial_magmoms:R:1 pbc="T T T"
Si       0.52268094      -1.98759177       1.06131424       0.00000000
Si      -2.28794679       0.04414590      -0.51451493       0.00000000
Si      -0.09189189       1.45772694       1.88446226       0.00000000
Si       1.37678193       0.45890559      -1.91960945       0.00000000
Si      -0.55140021       0.96772374      -3.23964706       0.00000000
Si      -0.11903103       3.52567728       0.80876491       0.00000000
Si      -2.38578453       1.85210784      -1.99856130       0.00000000
Si      -0.98153766      -2.03942655       2.93084153       0.00000000
Si       0.02326212      -3.76900101      -0.41248804       0.00000000
Si      -3.51805356       0.00320913       1.42789363       0.00000000
