10
Lattice="16.28999089631971 0.0 0.0 0.0 16.28999089631971 0.0 0.0 0.0 34.49183129400761" Properties=species:S:1:pos:R:3:initial_magmoms:R:1 pbc="T T T"
Si      -1.34939844      -1.36104579       1.37584198       0.00000000
Si       1.36381509       1.35526284       1.37832539       0.00000000
Si       1.27360107      -1.31540121      -1.51535806       0.00000000
Si      -1.21813362       1.38044718      -1.54362414       0.00000000
Si       0.55988730       2.49935841      -2.77102496       0.00000000
Si      -2.70093087       2.71119357      -0.01815306       0.00000000
Si       2.71428867      -2.70674640      -0.00703289       0.00000000
Si      -2.71694394      -2.71363707      -0.00203847       0.00000000
Si       2.73323394       2.70847314       0.01963276       0.00000000
Si      -2.70876636      -0.00309510       2.73747676       0.00000000
