10
Lattice="16.28999089631971 0.0 0.0 0.0 16.28999089631971 0.0 0.0 0.0 34.49183129400761" Properties=species:S:1:pos:R:3:initial_magmoms:R:1 pbc="T T T"
Si       1.64191797      -0.12207726       1.70924365       0.00000000
Si      -1.25002944       1.86232167       0.77744631       0.00000000
Si      -1.71913257      -1.69753203      -0.21726417       0.00000000
Si       0.88484022       0.25847343      -2.28925861       0.00000000
Si      -1.64465469       1.05331140       2.97164539       0.00000000
Si      -3.01637043       1.96038747      -0.78496554       0.00000000
Si       1.72939527       2.52240876      -2.05185121       0.00000000
Si      -3.54893940      -0.35126127      -1.02885741       0.00000000
Si       0.65738295       1.11956283       3.50382015       0.00000000
Si       3.70680579       0.34606476       0.77855005       0.00000000
