10
Lattice="16.28999089631971 0.0 0.0 0.0 16.28999089631971 0.0 0.0 0.0 34.49183129400761" Properties=species:S:1:pos:R:3:initial_magmoms:R:1 pbc="T T T"
Si       0.61173837      -1.90909026      -1.16034035       0.00000000
Si       1.56041910       1.72037061      -0.01886704       0.00000000
Si      -0.46954296      -1.01527425       2.05154078       0.00000000
Si      -1.87361064       0.88107723      -1.22014921       0.00000000
Si      -1.59612678      -2.70915732      -1.72183318       0.00000000
Si       0.44517312       3.48247620       0.97249773       0.00000000
Si       1.48594122      -1.03047282      -3.20777659       0.00000000
Si       1.95504435       2.52938088      -2.21306612       0.00000000
Si      -2.55567294      -0.75085497      -2.83264323       0.00000000
Si      -1.24976880      -3.30343281       1.74846089       0.00000000
