10
Lattice="16.28999089631971 0.0 0.0 0.0 16.28999089631971 0.0 0.0 0.0 34.49183129400761" Properties=species:S:1:pos:R:3:initial_magmoms:R:1 pbc="T T T"
Si       1.07606853       1.86332025      -0.96570283       0.00000000
Si      -1.23140997       1.50821454       1.41340705       0.00000000
Si       1.90364940      -0.90652451       1.41544207       0.00000000
Si      -1.28187639      -1.32253853      -2.13983992       0.00000000
Si       0.29991519      -1.99370282       2.84522727       0.00000000
Si       1.84067226       0.78093120      -2.89365931       0.00000000
Si      -1.58511474      -2.96983220       1.49877438       0.00000000
Si      -1.13933889      -3.40917350      -0.96553037       0.00000000
Si      -0.68867604       3.48033081      -1.24012000       0.00000000
Si      -2.64315024       2.75689191       0.00172459       0.00000000
