10
Lattice="16.28999089631971 0.0 0.0 0.0 16.28999089631971 0.0 0.0 0.0 34.49183129400761" Properties=species:S:1:pos:R:3:initial_magmoms:R:1 pbc="T T T"
Si      -0.02713914       2.06795034      -1.07569734       0.00000000
Si       0.09189189      -1.45772694      -1.88446226       0.00000000
Si      -2.29741128       0.27280863       0.73964324       0.00000000
Si       1.78499304      -0.45989928       1.63784552       0.00000000
Si       0.12352707      -1.90434987       2.64493858       0.00000000
Si      -2.19605490      -1.41358104      -2.39897719       0.00000000
Si       0.61457283      -3.44531871      -0.82314801       0.00000000
Si      -3.42616167      -1.45451781      -0.45656863       0.00000000
Si      -0.88964577      -3.49715349       1.04637927       0.00000000
Si       2.02714389       2.41075710      -2.07085622       0.00000000
