10
Lattice="16.28999089631971 0.0 0.0 0.0 16.28999089631971 0.0 0.0 0.0 34.49183129400761" Properties=species:S:1:pos:R:3:initial_magmoms:R:1 pbc="T T T"
Si       1.35843776      -1.35742941       1.36318692       0.00000000
Si      -1.36023649       1.35806472       1.36246259       0.00000000
Si       1.35780245       1.35223290      -1.39115981       0.00000000
Si      -1.36801044      -1.35715248      -1.38204016       0.00000000
Si      -2.71548666       2.71383255       0.00748473       0.00000000
Si       2.71449881       2.71513575      -0.00034492       0.00000000
Si      -2.71511199      -2.71625976       0.00358715       0.00000000
Si       2.71498751      -2.71830578       0.00407004       0.00000000
Si       2.71374947      -0.00004887       2.72030327       0.00000000
Si      -0.00101650       2.71463076       2.72006183       0.00000000
