10
Lattice="16.28999089631971 0.0 0.0 0.0 16.28999089631971 0.0 0.0 0.0 34.49183129400761" Properties=species:S:1:pos:R:3:initial_magmoms:R:1 pbc="T T T"
Si       0.76196475       0.19046268      -2.31081602       0.00000000
Si       0.39767148       2.41440836       0.37603015       0.00000000
Si      -2.26799154      -0.96775632      -0.55111079       0.00000000
Si       2.00210616      -1.93157046       0.08578123       0.00000000
Si      -0.13960530      -0.35303688       2.90273067       0.00000000
Si       2.55616164      -1.58755824      -2.23524438       0.00000000
Si      -0.88583391      -0.85592547      -3.65796423       0.00000000
Si      -1.75702311      -2.53402353      -2.33189054       0.00000000
Si      -2.74365954      -2.49359175       1.35266690       0.00000000
Si      -0.97731855      -2.59165755       2.91507875       0.00000000
