10
Lattice="16.28999089631971 0.0 0.0 0.0 16.28999089631971 0.0 0.0 0.0 34.49183129400761" Properties=species:S:1:pos:R:3:initial_magmoms:R:1 pbc="T T T"
Si      -1.54158786      -1.54106658       0.87895583       0.00000000
Si       0.22936320       1.49334081       1.84469315       0.00000000
Si      -1.09701747       1.56456069      -1.47266405       0.00000000
Si       1.89509715      -1.44360351      -0.54014238       0.00000000
Si      -0.45248733      -2.72912886       2.65776955       0.00000000
Si       1.05738390      -3.68222418      -0.52779430       0.00000000
Si       0.57891402       2.83660118      -2.57081559       0.00000000
Si       2.16283959       2.81531015       1.61552930       0.00000000
Si      -2.09681622       3.31498961      -0.18456589       0.00000000
Si       0.25979292       0.43360722       3.91999882       0.00000000
