10
Lattice="16.28999089631971 0.0 0.0 0.0 16.28999089631971 0.0 0.0 0.0 34.49183129400761" Properties=species:S:1:pos:R:3:initial_magmoms:R:1 pbc="T T T"
Si       1.29451254      -1.37015190       1.53607732       0.00000000
Si       1.08911193       1.84433751      -1.25018959       0.00000000
Si      -1.41857785       1.33600806       1.54157532       0.00000000
Si      -1.18424879      -1.54443861      -1.66312602       0.00000000
Si      -2.63159641       2.64593583      -0.05734270       0.00000000
Si      -2.72295073      -2.59529022       0.08567086       0.00000000
Si       2.54263605      -2.89380447       0.05394870       0.00000000
Si      -0.72084879       3.58857297      -1.36697899       0.00000000
Si       2.69476836       2.84249097       0.11625823       0.00000000
Si       2.65120890      -0.00724905       2.92689221       0.00000000
