10
Lattice="16.28999089631971 0.0 0.0 0.0 16.28999089631971 0.0 0.0 0.0 34.49183129400761" Properties=species:S:1:pos:R:3:initial_magmoms:R:1 pbc="T T T"
Si      -0.87104259       1.51540983      -1.52450530       0.00000000
Si       0.90095103       1.64126637       1.45403297       0.00000000
Si      -1.77802092      -1.11891123       1.22740082       0.00000000
Si       1.74087972      -0.84781305      -2.01801470       0.00000000
Si       2.09609946      -2.40155325      -0.14107167       0.00000000
Si       2.17334664       0.20911473       2.79065772       0.00000000
Si       2.35577835       2.82121623       0.01948790       0.00000000
Si       3.25281978       1.09362915      -1.44307004       0.00000000
Si      -1.65566673       0.29678751      -3.35067633       0.00000000
Si      -0.55988730      -2.49935841       2.77102496       0.00000000
