10
Lattice="16.28999089631971 0.0 0.0 0.0 16.28999089631971 0.0 0.0 0.0 34.49183129400761" Properties=species:S:1:pos:R:3:initial_magmoms:R:1 pbc="T T T"
Si      -1.35700261      -1.35685926       1.35677143       0.00000000
Si       1.35703845      -1.35720135      -1.35711635       0.00000000
Si      -1.35772752       1.35747828      -1.35735780       0.00000000
Si       1.35969372       1.35892809       1.35828908       0.00000000
Si      -0.00136836      -2.71218726       2.71561238       0.00000000
Si       0.00172674      -2.71458189      -2.71423271       0.00000000
Si      -0.00079821       2.71440270      -2.71468110       0.00000000
Si       2.71479366      -2.71464705      -0.00020695       0.00000000
Si       2.71489140       2.71502172      -0.00017246       0.00000000
Si       2.71513575       0.00003258      -2.71523297       0.00000000
