10
Lattice="16.28999089631971 0.0 0.0 0.0 16.28999089631971 0.0 0.0 0.0 34.49183129400761" Properties=species:S:1:pos:R:3:initial_magmoms:R:1 pbc="T T T"
Si      -0.53569665       1.17331983       1.98783433       0.00000000
Si      -1.40116806       0.62289702      -1.81685823       0.00000000
Si      -0.64749492      -2.19756172       0.66431304       0.00000000
Si       2.30053637       0.32334021      -0.64147944       0.00000000
Si      -2.57504175      -1.50403941       1.96862237       0.00000000
Si      -2.06314479      -2.90074238      -1.10863706       0.00000000
Si       0.76782526       0.21144420       3.66079256       0.00000000
Si       3.59372780      -0.63188910       1.09459888       0.00000000
Si      -0.83368962       2.73409731      -2.56750437       0.00000000
Si       1.03120328      -3.30768613       1.92043726       0.00000000
