10
Lattice="16.28999089631971 0.0 0.0 0.0 16.28999089631971 0.0 0.0 0.0 34.49183129400761" Properties=species:S:1:pos:R:3:initial_magmoms:R:1 pbc="T T T"
Si       1.36371735      -0.92550006      -1.60431945       0.00000000
Si       0.37688544       0.54219636       2.21909568       0.00000000
Si      -0.36849609       2.02792581      -1.08904569       0.00000000
Si      -2.19564765      -1.17277574       0.34091745       0.00000000
Si      -2.35255293       2.31757830       0.13065513       0.00000000
Si      -1.39804038       2.26082394       2.23554794       0.00000000
Si      -0.39876291      -1.40419148       3.33688101       0.00000000
Si      -1.54497618      -2.82837473       1.84300305       0.00000000
Si       0.79547328      -0.74438784      -3.89768259       0.00000000
Si       3.66953427      -0.41287005      -1.66978498       0.00000000
