10
Lattice="16.28999089631971 0.0 0.0 0.0 16.28999089631971 0.0 0.0 0.0 34.49183129400761" Properties=species:S:1:pos:R:3:initial_magmoms:R:1 pbc="T T T"
Si      -1.36019871      -1.34456031       1.39314654       0.00000000
Si       1.35426168       1.37054286       1.38735191       0.00000000
Si      -1.21301856       1.30992777      -1.59891802       0.00000000
Si       1.41857785      -1.33600806      -1.54157532       0.00000000
Si       0.69772906       2.25256491      -2.90855431       0.00000000
Si       2.50768979       0.50832945      -2.79176491       0.00000000
Si      -2.69312796      -2.68856676       0.03402966       0.00000000
Si      -2.70345582       2.71402803       0.00306288       0.00000000
Si       2.71309040      -2.70615996      -0.00549800       0.00000000
Si      -0.00494854      -2.70032814       2.74812440       0.00000000
