10
Lattice="16.28999089631971 0.0 0.0 0.0 16.28999089631971 0.0 0.0 0.0 34.49183129400761" Properties=species:S:1:pos:R:3:initial_magmoms:R:1 pbc="T T T"
Si      -1.95471855       0.78011181       1.08073315       0.00000000
Si       0.74300319       1.51832574      -1.71334819       0.00000000
Si      -0.78535719      -2.15969562      -0.76654689       0.00000000
Si       1.09307529      -0.82257984       2.04102077       0.00000000
Si      -0.26847549      -2.72460024       1.50746633       0.00000000
Si      -0.35943885       2.15710551       2.85875356       0.00000000
Si       3.09715254       1.44860454      -1.81896223       0.00000000
Si       3.45015684      -1.12526433       1.60245689       0.00000000
Si      -3.73971159       1.24001109      -0.55711237       0.00000000
Si       3.76497738       1.19576745       0.50471925       0.00000000
