10
Lattice="16.28999089631971 0.0 0.0 0.0 16.28999089631971 0.0 0.0 0.0 34.49183129400761" Properties=species:S:1:pos:R:3:initial_magmoms:R:1 pbc="T T T"
Si       2.32094123       0.29335032      -0.34057253       0.00000000
Si      -0.57901176      -0.11274309      -2.29988210       0.00000000
Si      -0.66134142       1.87532109       1.33393783       0.00000000
Si      -0.71552196      -2.07860400       1.01802697       0.00000000
Si       0.08941192      -3.31711641      -0.84611959       0.00000000
Si       3.05627183       0.00511506       1.89977664       0.00000000
Si      -1.21410999      -2.35524078      -2.51907781       0.00000000
Si       2.58022916       2.31946794      -1.59348900       0.00000000
Si      -3.01549077       1.94504229       1.43955188       0.00000000
Si       0.07848654       3.94631766       0.47991961       0.00000000
