10
Lattice="16.28999089631971 0.0 0.0 0.0 16.28999089631971 0.0 0.0 0.0 34.49183129400761" Properties=species:S:1:pos:R:3:initial_magmoms:R:1 pbc="T T T"
Si       1.34077126       1.35679410      -1.37415533       0.00000000
Si      -1.24833675       1.43751105       1.39247050       0.00000000
Si      -1.37110216      -1.35979146      -1.37239624       0.00000000
Si       1.43566051      -1.32963867       1.46273040       0.00000000
Si      -2.55386542       0.00928530       2.78307844       0.00000000
Si       0.37920514       2.68180641       2.65652784       0.00000000
Si       2.70237091      -2.70544320      -0.00979569       0.00000000
Si       2.70934303       2.70575271      -0.00769168       0.00000000
Si       2.70193108       0.00153126      -2.73220296       0.00000000
Si      -2.72816842      -2.70816363      -0.00400105       0.00000000
