10
Lattice="16.28999089631971 0.0 0.0 0.0 16.28999089631971 0.0 0.0 0.0 34.49183129400761" Properties=species:S:1:pos:R:3:initial_magmoms:R:1 pbc="T T T"
Si      -2.35708155       0.30268449       0.43856388       0.00000000
Si       0.54415672      -1.85837949      -1.61977179       0.00000000
Si       0.31482054       2.32103178      -1.09773764       0.00000000
Si       0.57839015      -1.09871163       2.37345322       0.00000000
Si       2.65542380       2.03061366      -1.09639245       0.00000000
Si       1.66639274      -2.88342774       1.16413445       0.00000000
Si       2.80757240      -1.51604514      -2.18771461       0.00000000
Si      -2.55234978       1.66063518       2.49217417       0.00000000
Si      -3.45015684       1.12526433      -1.60245689       0.00000000
Si      -0.40718484      -1.38005622      -3.73732998       0.00000000
