10
Lattice="16.28999089631971 0.0 0.0 0.0 16.28999089631971 0.0 0.0 0.0 34.49183129400761" Properties=species:S:1:pos:R:3:initial_magmoms:R:1 pbc="T T T"
Si       0.27954454       1.29327939       2.11652343       0.00000000
Si      -1.50811910       1.41679017      -1.48915116       0.00000000
Si       1.31673699      -1.59334119      -1.50515538       0.00000000
Si       0.33800936      -2.42595567       1.14468104       0.00000000
Si      -2.66718518      -0.91202823       0.15811064       0.00000000
Si      -1.89334502      -2.30047380       1.95572242       0.00000000
Si      -3.24372086       1.12497111       1.32793625       0.00000000
Si      -2.26878065       2.92789944       0.23561383       0.00000000
Si       2.48140683       0.07786620      -2.80949920       0.00000000
Si      -1.87184222       0.87369786       3.25810020       0.00000000
