10
Lattice="16.28999089631971 0.0 0.0 0.0 16.28999089631971 0.0 0.0 0.0 34.49183129400761" Properties=species:S:1:pos:R:3:initial_magmoms:R:1 pbc="T T T"
Si      -2.35414935       0.06972120       0.10561405       0.00000000
Si       0.73982796       2.07099657      -0.85401822       0.00000000
Si       0.66134142      -1.87532109      -1.33393783       0.00000000
Si       0.66782484      -0.25283709       2.32368148       0.00000000
Si      -0.26020017       1.98511569      -2.99651401       0.00000000
Si       3.07402793       1.72414989      -1.00247114       0.00000000
Si      -2.85632118       2.35885716       0.51782615       0.00000000
Si       2.98228265      -1.58197077      -1.67451036       0.00000000
Si       3.00842810      -0.54325521       2.32502666       0.00000000
Si      -3.09715254      -1.44860454       1.81896223       0.00000000
