10
Lattice="16.28999089631971 0.0 0.0 0.0 16.28999089631971 0.0 0.0 0.0 34.49183129400761" Properties=species:S:1:pos:R:3:initial_magmoms:R:1 pbc="T T T"
Si       2.34060326      -0.29041812       0.00134518       0.00000000
Si      -0.66782484       0.25283709      -2.32368148       0.00000000
Si       0.00350530       2.04214698       1.47776885       0.00000000
Si      -0.31482054      -2.32103178       1.09773764       0.00000000
Si       2.91785570       1.72344942      -1.02654646       0.00000000
Si      -2.67190209      -2.01834729       1.53630152       0.00000000
Si       1.47956924       3.43994301      -0.10609693       0.00000000
Si      -3.02197419       0.32255829      -2.21806743       0.00000000
Si       3.04978841      -1.61736894      -1.75784267       0.00000000
Si       0.07200312       2.32383366      -3.17769970       0.00000000
