10
Lattice="16.28999089631971 0.0 0.0 0.0 16.28999089631971 0.0 0.0 0.0 34.49183129400761" Properties=species:S:1:pos:R:3:initial_magmoms:R:1 pbc="T T T"
Si       1.99449614       0.78770295      -0.97780913       0.00000000
Si      -1.29699351      -1.60443468      -1.30457979       0.00000000
Si       1.41659469      -1.25633367       1.54928425       0.00000000
Si      -1.25050185       1.43826057       1.56537125       0.00000000
Si       2.77633632      -2.59437798       0.11361960       0.00000000
Si       2.71600631       2.69113148       0.13338344       0.00000000
Si      -2.71270854      -2.71581993       0.17836081       0.00000000
Si      -2.65201200       2.77392377       0.29184245       0.00000000
Si       0.08135226      -2.61724914       2.92765448       0.00000000
Si      -2.63259432       0.09383040       2.92920661       0.00000000
