10
Lattice="16.28999089631971 0.0 0.0 0.0 16.28999089631971 0.0 0.0 0.0 34.49183129400761" Properties=species:S:1:pos:R:3:initial_magmoms:R:1 pbc="T T T"
Si       0.96826131       2.13141618      -0.20229470       0.00000000
Si      -0.66758049      -0.40096206       2.23917645       0.00000000
Si      -2.25820940       0.08281836      -0.86233076       0.00000000
Si       1.55678643      -1.40139612      -1.59017779       0.00000000
Si       0.63421857       2.62438416      -2.56346883       0.00000000
Si      -1.27537016      -2.74752027       2.20527096       0.00000000
Si       1.15209396       0.26630892       3.66137892       0.00000000
Si       3.34865385       1.89884385      -0.05884310       0.00000000
Si      -0.71335539      -3.79394100       0.03080122       0.00000000
Si      -2.48216594       0.98471421       2.93042762       0.00000000
