10
Lattice="16.28999089631971 0.0 0.0 0.0 16.28999089631971 0.0 0.0 0.0 34.49183129400761" Properties=species:S:1:pos:R:3:initial_magmoms:R:1 pbc="T T T"
Si       0.04430880       2.34348822      -0.15421306       0.00000000
Si      -0.42031458      -1.23600375       1.96910526       0.00000000
Si      -1.90954638      -0.55719945      -1.34394047       0.00000000
Si       2.17148958      -0.41088267      -0.96856566       0.00000000
Si       0.52937613       2.60864869      -2.46654673       0.00000000
Si       1.45995867       3.04666887       1.61873704       0.00000000
Si       2.48624496       1.32605487      -2.59309733       0.00000000
Si       2.00604834      -2.22723396      -2.40832448       0.00000000
Si      -0.83984724      -3.53857896       1.39478145       0.00000000
Si      -2.51739144      -0.72540999       2.94315512       0.00000000
