10
Lattice="16.28999089631971 0.0 0.0 0.0 16.28999089631971 0.0 0.0 0.0 34.49183129400761" Properties=species:S:1:pos:R:3:initial_magmoms:R:1 pbc="T T T"
Si       0.16544124       1.81635129       1.43975883       0.00000000
Si       0.20352726      -2.08484307       1.07783584       0.00000000
Si       2.13512934       0.00329058      -1.06979924       0.00000000
Si      -1.77388326       0.09150093      -1.75256542       0.00000000
Si       0.48019662       3.55328883      -0.18477284       0.00000000
Si       2.13758587      -2.17621368      -1.93871794       0.00000000
Si       0.66261204      -3.50797005      -0.75851029       0.00000000
Si       2.38015212       1.37771046       2.40684133       0.00000000
Si       3.61663154       0.02164941       0.83687577       0.00000000
Si      -1.86136056      -2.55298509       2.00852944       0.00000000
