10
Lattice="16.28999089631971 0.0 0.0 0.0 16.28999089631971 0.0 0.0 0.0 34.49183129400761" Properties=species:S:1:pos:R:3:initial_magmoms:R:1 pbc="T T T"
Si      -1.23707889      -1.93997610       0.27189926       0.00000000
Si       0.38643138       1.00287756      -2.08623958       0.00000000
Si      -1.34221455       1.48761909       1.26547151       0.00000000
Si       2.32787358      -0.35538264       0.49644121       0.00000000
Si      -0.48612618      -2.49228855       2.46440823       0.00000000
Si       0.94397292       3.20336334      -1.17106731       0.00000000
Si      -0.74784132      -2.96618094      -1.80626923       0.00000000
Si       2.24800371      -0.20344581      -2.88703688       0.00000000
Si      -1.08292662       3.51373671       0.01255503       0.00000000
Si       2.93257467       1.44741537       1.80285454       0.00000000
