10
Lattice="16.28999089631971 0.0 0.0 0.0 16.28999089631971 0.0 0.0 0.0 34.49183129400761" Properties=species:S:1:pos:R:3:initial_magmoms:R:1 pbc="T T T"
Si       0.81329454      -0.64394370       2.11000447       0.00000000
Si       0.67779432      -1.47196440      -1.70927815       0.00000000
Si      -2.26341568      -0.34233435       0.56794281       0.00000000
Si       0.55703655       2.21970798      -0.66786570       0.00000000
Si       3.24394173       0.24400791       0.27659015       0.00000000
Si      -3.21475724       0.13598892      -1.54961537       0.00000000
Si       2.96140797      -1.67101191      -1.17617210       0.00000000
Si      -0.15214860       3.54665880       1.09132215       0.00000000
Si       2.10543363       1.09263546       2.92777175       0.00000000
Si       2.86638840       2.42680275      -0.42842328       0.00000000
