10
Lattice="16.28999089631971 0.0 0.0 0.0 16.28999089631971 0.0 0.0 0.0 34.49183129400761" Properties=species:S:1:pos:R:3:initial_magmoms:R:1 pbc="T T T"
Si       1.35674836       1.35670192       1.35690940       0.00000000
Si      -1.35778045       1.35567565      -1.35925485       0.00000000
Si      -1.35872527      -1.35884827       1.35690940       0.00000000
Si       1.36090068      -1.36088452      -1.36291098       0.00000000
Si      -2.68940650      -0.01852318      -2.72219342       0.00000000
Si       2.71337467      -0.00061971       2.71471559       0.00000000
Si      -0.00103129       2.71377295       2.71461212       0.00000000
Si      -0.00108854      -2.71562608       2.71454313       0.00000000
Si       2.71576930       2.71450600       0.00034492       0.00000000
Si      -2.71602436      -0.00094739       2.71437067       0.00000000
