10
Lattice="16.28999089631971 0.0 0.0 0.0 16.28999089631971 0.0 0.0 0.0 34.49183129400761" Properties=species:S:1:pos:R:3:initial_magmoms:R:1 pbc="T T T"
Si      -0.70918515       1.32695082       1.75918785       0.00000000
Si       2.30935185       0.20709477       0.23944243       0.00000000
Si      -0.73533060       0.28823526      -2.24034917       0.00000000
Si      -0.55703655      -2.21970798       0.66786570       0.00000000
Si      -0.13193271       3.34081836       0.73129622       0.00000000
Si       2.68690518      -1.97570007       0.94445585       0.00000000
Si      -3.05627183      -0.00511506      -1.89977664       0.00000000
Si       0.60688395      -1.19938383      -3.50582068       0.00000000
Si       0.12075777      -3.69167238      -1.04141244       0.00000000
Si      -3.04978841       1.61736894       1.75784267       0.00000000
