10
Lattice="16.28999089631971 0.0 0.0 0.0 16.28999089631971 0.0 0.0 0.0 34.49183129400761" Properties=species:S:1:pos:R:3:initial_magmoms:R:1 pbc="T T T"
Si      -1.35692931      -1.35692442       1.35732330       0.00000000
Si       1.35780408       1.35790182       1.35708186       0.00000000
Si      -1.35693908       1.35738054      -1.36104842       0.00000000
Si       1.35858600      -1.35641943      -1.36308344       0.00000000
Si      -2.71433234       0.00094482       2.71412923       0.00000000
Si       0.00079821      -2.71440270       2.71468110       0.00000000
Si      -2.71614930      -2.71349046      -0.00027593       0.00000000
Si       0.00017919       2.71528236       2.71447415       0.00000000
Si       2.71568961       0.00061902       2.71450864       0.00000000
Si       2.71593396      -2.71437012      -0.00055187       0.00000000
