10
Lattice="16.28999089631971 0.0 0.0 0.0 16.28999089631971 0.0 0.0 0.0 34.49183129400761" Properties=species:S:1:pos:R:3:initial_magmoms:R:1 pbc="T T T"
Si      -1.35565772      -1.35714922       1.35684042       0.00000000
Si       1.35777965      -1.35707103      -1.35770271       0.00000000
Si       1.35807124       1.35845568       1.35673694       0.00000000
Si      -1.35793832       1.35821133      -1.35790967       0.00000000
Si      -0.00002021      -2.71465424       2.71199073       0.00000000
Si       0.00103129      -2.71377295      -2.71461212       0.00000000
Si       2.71440596      -2.71439266       0.00010348       0.00000000
Si       2.71370549       0.00312768       2.71557789       0.00000000
Si      -2.71499306      -2.71472034      -0.00024144       0.00000000
Si      -2.71531886       2.71505430      -0.00020695       0.00000000
