10
Lattice="16.28999089631971 0.0 0.0 0.0 16.28999089631971 0.0 0.0 0.0 34.49183129400761" Properties=species:S:1:pos:R:3:initial_magmoms:R:1 pbc="T T T"
Si      -0.33705639       2.04314067      -1.09801357       0.00000000
Si      -2.13776113      -0.56177694       0.84204955       0.00000000
Si       0.69188517      -1.59475842      -1.62118596       0.00000000
Si       1.86606837       0.32904171       1.47383677       0.00000000
Si       1.90369827       2.41386849      -1.98893807       0.00000000
Si       1.43325936      -1.25937990       3.15765994       0.00000000
Si      -2.14583935       0.33879942       2.99247846       0.00000000
Si       3.75434001      -0.19539855       0.13475966       0.00000000
Si      -1.57353581       3.39920172       0.47195199       0.00000000
Si      -3.75016067      -0.06335181      -0.85705350       0.00000000
