10
Lattice="16.28999089631971 0.0 0.0 0.0 16.28999089631971 0.0 0.0 0.0 34.279985188174585" Properties=species:S:1:pos:R:3:initial_magmoms:R:1 pbc="T T T"
Si       1.35567009      -1.35376545       1.35968209       0.00000000
Si      -1.35681039      -1.35660010      -1.35796809       0.00000000
Si       1.35808101       1.35833188      -1.35752245       0.00000000
Si      -1.35718506       1.35880429       1.35961353       0.00000000
Si       2.70446580       0.00971861       2.72292931       0.00000000
Si      -2.71450858      -2.71331194      -0.00058276       0.00000000
Si       0.00099369      -2.71399612      -2.71446214       0.00000000
Si      -2.71311742       2.71600564       0.00003428       0.00000000
Si      -2.71444017       0.00118103      -2.71473638       0.00000000
Si       2.71534752       0.00098392      -2.71425646       0.00000000
