10
Lattice="16.28999089631971 0.0 0.0 0.0 16.28999089631971 0.0 0.0 0.0 34.279985188174585" Properties=species:S:1:pos:R:3:initial_magmoms:R:1 pbc="T T T"
Si      -1.33745787      -1.37256220       1.35841373       0.00000000
Si      -1.35567009       1.35376545      -1.35968209       0.00000000
Si       1.34879571       1.36348406       1.36324721       0.00000000
Si       1.36070370      -1.36019809      -1.35971637       0.00000000
Si       2.60092656      -0.13698199       2.70428098       0.00000000
Si      -2.67196725      -0.06087511       2.74126911       0.00000000
Si      -2.71285515       2.71256973      -0.00006856       0.00000000
Si       0.00241092       2.71209732      -2.71720454       0.00000000
Si       2.72013678       2.70958866      -0.00006856       0.00000000
Si      -2.71248048      -0.00283466      -2.71765018       0.00000000
