10
Lattice="16.28999089631971 0.0 0.0 0.0 16.28999089631971 0.0 0.0 0.0 34.279985188174585" Properties=species:S:1:pos:R:3:initial_magmoms:R:1 pbc="T T T"
Si       0.49692645       1.41909521       1.86572352       0.00000000
Si       0.17863614      -2.06420268       1.24748364       0.00000000
Si       2.22625656       0.20016175      -0.96433080       0.00000000
Si       0.80443278      -1.04104407      -2.48605448       0.00000000
Si       0.05822046      -2.84796345      -1.05339025       0.00000000
Si      -2.82468600       0.16613845      -1.11992774       0.00000000
Si      -1.68329457       1.20103726       2.60363489       0.00000000
Si      -1.76306670       1.85516222      -2.36799414       0.00000000
Si      -0.41386374       3.30549350      -1.08643618       0.00000000
Si      -3.48474051       0.48176698       1.05709249       0.00000000
