10
Lattice="16.28999089631971 0.0 0.0 0.0 16.28999089631971 0.0 0.0 0.0 34.279985188174585" Properties=species:S:1:pos:R:3:initial_magmoms:R:1 pbc="T T T"
Si      -1.06161930      -1.68902376       1.24806640       0.00000000
Si       1.34920296       1.45033128       1.28155796       0.00000000
Si      -1.38947184       1.30870602      -1.44558778       0.00000000
Si       1.31536863      -1.39574023      -1.45909410       0.00000000
Si      -0.78196887       1.97938161       2.40954151       0.00000000
Si       1.76306670      -1.85516222       2.36799414       0.00000000
Si      -2.80350900       2.59519248       0.00270812       0.00000000
Si       2.56749948      -2.89620629      -0.11806033       0.00000000
Si      -0.03116277       2.66740605      -2.82165572       0.00000000
Si       2.74849767       2.75157648      -0.10181161       0.00000000
