10
Lattice="16.28999089631971 0.0 0.0 0.0 16.28999089631971 0.0 0.0 0.0 34.279985188174585" Properties=species:S:1:pos:R:3:initial_magmoms:R:1 pbc="T T T"
Si       0.80593146       2.13035733      -0.33584120       0.00000000
Si       1.24538679      -1.17511173      -1.62874585       0.00000000
Si       0.96606216      -0.81103023       2.01816670       0.00000000
Si      -2.31583527      -0.05429457      -0.68059521       0.00000000
Si       0.60598800      -3.22466577      -0.68148649       0.00000000
Si      -1.59281991       0.19222200      -3.10285459       0.00000000
Si       0.48984030      -3.10850178       1.76524882       0.00000000
Si       1.66754214       2.15772453      -2.45811627       0.00000000
Si      -0.55605915      -1.89438202      -3.17528824       0.00000000
Si       2.80870551       2.45592927       0.85919403       0.00000000
