10
Lattice="16.28999089631971 0.0 0.0 0.0 16.28999089631971 0.0 0.0 0.0 34.279985188174585" Properties=species:S:1:pos:R:3:initial_magmoms:R:1 pbc="T T T"
Si      -0.47622186      -2.29747155      -0.25291787       0.00000000
Si      -0.96606216       0.81103023      -2.01816670       0.00000000
Si      -0.65353851       0.89901252       2.17465492       0.00000000
Si       2.42115012      -0.33977682       0.05851597       0.00000000
Si       1.31108436       2.09870586       2.59674461       0.00000000
Si      -0.36007416      -2.41363554      -2.69965318       0.00000000
Si       0.27932463      -0.36408150      -3.64691254       0.00000000
Si      -0.16013070       2.94138756      -2.35400790       0.00000000
Si       3.06613638       0.59849460       2.15892039       0.00000000
Si      -2.62389546      -2.70965321       0.56654563       0.00000000
