10
Lattice="16.28999089631971 0.0 0.0 0.0 16.28999089631971 0.0 0.0 0.0 34.279985188174585" Properties=species:S:1:pos:R:3:initial_magmoms:R:1 pbc="T T T"
Si       1.84238271      -1.38710979      -0.26471019       0.00000000
Si      -1.83104487      -1.19508816      -0.84620191       0.00000000
Si       0.34086825       1.79459274      -1.57609176       0.00000000
Si       0.25873407      -0.04231165       2.40937011       0.00000000
Si      -3.58035629      -0.02722711       0.31006264       0.00000000
Si       2.10176838       1.73910900       2.42805271       0.00000000
Si      -1.44327771      -1.73187365       2.96566602       0.00000000
Si       3.84294132      -0.16304172       0.06496061       0.00000000
Si       1.90492002      -2.53081670      -2.31883661       0.00000000
Si       2.30549112       2.99428608      -1.15400207       0.00000000
