10
Lattice="16.28999089631971 0.0 0.0 0.0 16.28999089631971 0.0 0.0 0.0 34.279985188174585" Properties=species:S:1:pos:R:3:initial_magmoms:R:1 pbc="T T T"
Si       1.54756629      -1.70982188      -0.12056278       0.00000000
Si       0.45805851       1.34794863       1.85646792       0.00000000
Si       0.21760182       1.65711654      -1.65678689       0.00000000
Si      -2.00055861      -1.22406807      -0.32967080       0.00000000
Si      -1.74117294       1.90215072       2.36309210       0.00000000
Si       2.05174179      -1.54602593      -2.40673055       0.00000000
Si      -1.75982499      -2.91243113       1.29955496       0.00000000
Si      -1.53745020       3.15732780      -1.21896267       0.00000000
Si       0.43699554      -3.65284421       0.74696129       0.00000000
Si       2.15526474       2.90001096      -1.05956065       0.00000000
