10
Lattice="16.28999089631971 0.0 0.0 0.0 16.28999089631971 0.0 0.0 0.0 34.279985188174585" Properties=species:S:1:pos:R:3:initial_magmoms:R:1 pbc="T T T"
Si       1.03676076      -2.08660402      -0.07243365       0.00000000
Si      -1.44528790       0.57914208      -1.81653171       0.00000000
Si      -0.72301536      -0.24651657       2.42225939       0.00000000
Si       1.97646570       1.26617283      -1.08797878       0.00000000
Si       2.83820670      -1.36733373       1.47410875       0.00000000
Si       1.59281991      -0.19222200       3.10285459       0.00000000
Si      -2.90920571       1.94691564      -0.06235533       0.00000000
Si       1.69681527      -2.40223254      -2.24945389       0.00000000
Si      -1.66149692      -2.41468136       2.38427714       0.00000000
Si      -1.24771789       3.50958276       0.84565343       0.00000000
