10
Lattice="16.28999089631971 0.0 0.0 0.0 16.28999089631971 0.0 0.0 0.0 34.279985188174585" Properties=species:S:1:pos:R:3:initial_magmoms:R:1 pbc="T T T"
Si      -1.89581391      -0.49604679      -1.25221428       0.00000000
Si       1.36458072      -1.71173691      -0.79985534       0.00000000
Si       0.92286108       2.05091100      -0.66040428       0.00000000
Si       0.30951000      -0.22219560       2.36826838       0.00000000
Si      -2.63549394       1.75668102      -1.16788547       0.00000000
Si       3.35244942      -0.59601852      -0.21846647       0.00000000
Si      -2.80487736      -1.95408324       0.34314284       0.00000000
Si      -0.75064320       2.85882984      -2.11987547       0.00000000
Si       3.01669623       1.41784902      -1.47513715       0.00000000
Si       1.94774643       1.47057975       2.76101439       0.00000000
