10
Lattice="16.28999089631971 0.0 0.0 0.0 16.28999089631971 0.0 0.0 0.0 34.279985188174585" Properties=species:S:1:pos:R:3:initial_magmoms:R:1 pbc="T T T"
Si       2.19682053      -0.15122007      -0.57213327       0.00000000
Si      -0.71794917       2.03113494       0.96110848       0.00000000
Si      -0.05225832      -1.56735864       1.78009207       0.00000000
Si      -1.18219788      -0.55939860      -2.12028683       0.00000000
Si      -2.17403082      -0.99448821       2.54642156       0.00000000
Si      -1.71418041       3.05286003      -0.84945851       0.00000000
Si       0.25925535      -3.54082698       0.62886668       0.00000000
Si      -2.59274898       1.21863861      -2.20776940       0.00000000
Si      -2.11818870       1.36085031       2.72474615       0.00000000
Si       3.49962957       0.18324621       1.31391829       0.00000000
