10
Lattice="16.28999089631971 0.0 0.0 0.0 16.28999089631971 0.0 0.0 0.0 34.279985188174585" Properties=species:S:1:pos:R:3:initial_magmoms:R:1 pbc="T T T"
Si       2.12177250      -0.57287043      -0.76632950       0.00000000
Si      -1.28661678      -0.91530252      -1.73199722       0.00000000
Si      -1.16113491      -1.07559612       1.74776602       0.00000000
Si       0.05584212       2.35533852       0.17832458       0.00000000
Si      -3.14916651       0.44264817      -1.26925144       0.00000000
Si      -3.34611261      -0.39600990       0.90728888       0.00000000
Si       2.17403082       0.99448821      -2.54642156       0.00000000
Si      -1.36767582      -3.20131080      -0.99086353       0.00000000
Si       1.21106376       2.67589314       2.14829359       0.00000000
Si      -0.75913029      -3.33993870       1.28522592       0.00000000
