10
Lattice="16.28999089631971 0.0 0.0 0.0 16.28999089631971 0.0 0.0 0.0 34.279985188174585" Properties=species:S:1:pos:R:3:initial_magmoms:R:1 pbc="T T T"
Si       0.13411557       0.98720658       2.10602635       0.00000000
Si      -0.24084765      -2.29897512       0.29449952       0.00000000
Si      -2.06521362       0.64786959      -0.92408608       0.00000000
Si       1.63421280       0.84670533      -1.53793811       0.00000000
Si      -0.73798587      -2.90478393      -1.93846569       0.00000000
Si       0.47899116       0.52615071      -3.50790712       0.00000000
Si      -1.96849989       1.95445791       2.46939439       0.00000000
Si       1.75602942       2.68578117       1.88077244       0.00000000
Si      -1.56103812       1.60994070      -3.00731622       0.00000000
Si      -2.85239529       2.42805708       0.35928873       0.00000000
