10
Lattice="16.28999089631971 0.0 0.0 0.0 16.28999089631971 0.0 0.0 0.0 34.279985188174585" Properties=species:S:1:pos:R:3:initial_magmoms:R:1 pbc="T T T"
Si       0.24084765       2.29897512      -0.29449952       0.00000000
Si       1.67350428      -0.80791884       1.45947119       0.00000000
Si      -0.49713822      -0.60580881      -2.23296520       0.00000000
Si      -1.88485074      -1.10214882       0.95199000       0.00000000
Si       0.75064320      -2.85882984       2.11987547       0.00000000
Si      -1.14517071      -3.35487663       0.86766119       0.00000000
Si      -1.82436597       2.94684471      -1.21858559       0.00000000
Si       0.37496322       3.28618170       1.81152683       0.00000000
Si      -3.90077734      -0.51606720      -0.11980862       0.00000000
Si      -0.09513360      -2.87015139      -2.69550530       0.00000000
