10
Lattice="16.28999089631971 0.0 0.0 0.0 16.28999089631971 0.0 0.0 0.0 34.279985188174585" Properties=species:S:1:pos:R:3:initial_magmoms:R:1 pbc="T T T"
Si      -2.09383515       0.63306198       0.81473286       0.00000000
Si       0.11192859      -0.56560509      -2.27156449       0.00000000
Si       1.40457267       1.81556937       0.53555651       0.00000000
Si       0.33575319      -2.01386754       1.25667068       0.00000000
Si       3.26800206       0.39112290       0.57172191       0.00000000
Si      -1.65211551      -3.12958593       0.67528181       0.00000000
Si      -3.01669623      -1.41784902       1.47513715       0.00000000
Si      -1.47186666       1.86561225       2.78963819       0.00000000
Si       2.08668384      -1.91386323      -2.38729378       0.00000000
Si       0.73368531      -1.35022923       3.48367116       0.00000000
