10
Lattice="16.28999089631971 0.0 0.0 0.0 16.28999089631971 0.0 0.0 0.0 34.279985188174585" Properties=species:S:1:pos:R:3:initial_magmoms:R:1 pbc="T T T"
Si      -2.12992727      -0.74818341       0.64278436       0.00000000
Si      -1.05801921       1.69311744      -1.31251281       0.00000000
Si       1.16870976      -1.76604288      -1.14440367       0.00000000
Si       1.23400008       1.08207954       2.27787201       0.00000000
Si       3.01174407       0.01537776      -1.12572106       0.00000000
Si      -1.23761646      -1.90629490       2.52578500       0.00000000
Si       3.14089119       1.25032266       0.86652995       0.00000000
Si      -0.53330202      -3.45560489      -0.58810775       0.00000000
Si      -1.60210521       3.25035999       0.53192283       0.00000000
Si      -2.61798219      -2.47651494      -0.93361592       0.00000000
