10
Lattice="16.28999089631971 0.0 0.0 0.0 16.28999089631971 0.0 0.0 0.0 34.279985188174585" Properties=species:S:1:pos:R:3:initial_magmoms:R:1 pbc="T T T"
Si       1.34864910       1.35739683       1.37066883       0.00000000
Si      -1.36790388      -1.35625653       1.37046315       0.00000000
Si      -1.33514469       1.39786119      -1.38395919       0.00000000
Si       1.40271561      -1.32932916      -1.41925731       0.00000000
Si       2.69622306      -2.70071910       0.01715029       0.00000000
Si      -2.71935486       2.70246915       0.03107482       0.00000000
Si       2.72178207       2.70711975      -0.01392797       0.00000000
Si       2.70477531       0.00140094       2.73127649       0.00000000
Si      -2.71081890      -2.72807001      -0.01369143       0.00000000
Si      -0.01011609      -2.71287144       2.73045377       0.00000000
