10
Lattice="16.28999089631971 0.0 0.0 0.0 16.28999089631971 0.0 0.0 0.0 34.279985188174585" Properties=species:S:1:pos:R:3:initial_magmoms:R:1 pbc="T T T"
Si       1.35612621      -1.35599589       1.36060765       0.00000000
Si      -1.34864910      -1.35739683      -1.37066883       0.00000000
Si      -1.35912357       1.36120541       1.36122469       0.00000000
Si       1.37313297       1.34972292      -1.38459680       0.00000000
Si      -0.07082892       2.68111476      -2.71807183       0.00000000
Si       2.71681362      -2.71116099       0.00325660       0.00000000
Si      -0.00030951      -2.71251306       2.71747878       0.00000000
Si      -2.71655298      -2.71365336      -0.00020568       0.00000000
Si       2.71417464       0.00228060       2.71741022       0.00000000
Si       2.71340901       2.71970577      -0.00126836       0.00000000
