10
Lattice="16.28999089631971 0.0 0.0 0.0 16.28999089631971 0.0 0.0 0.0 34.279985188174585" Properties=species:S:1:pos:R:3:initial_magmoms:R:1 pbc="T T T"
Si       1.43394354      -1.22535009       1.45402752       0.00000000
Si       1.81498293       0.84326814      -1.29877136       0.00000000
Si      -1.27883016       1.49086080       1.41139005       0.00000000
Si      -0.76245345      -1.97889291      -1.30165088       0.00000000
Si      -2.54930029      -2.58480760       0.14299218       0.00000000
Si       0.60735636       0.43771230      -3.65754418       0.00000000
Si       2.73391812      -2.62353545       0.08916229       0.00000000
Si       0.08943210      -2.58586971       2.81275320       0.00000000
Si       3.59425818      -0.77014233      -1.09694437       0.00000000
Si      -2.62895676       0.13004307       2.80641140       0.00000000
