10
Lattice="16.28999089631971 0.0 0.0 0.0 16.28999089631971 0.0 0.0 0.0 34.279985188174585" Properties=species:S:1:pos:R:3:initial_magmoms:R:1 pbc="T T T"
Si       1.89004725       0.72434204       1.20963851       0.00000000
Si       0.33487353      -1.15430940      -2.04977286       0.00000000
Si      -0.80739756      -1.93438863       1.43180722       0.00000000
Si      -1.48950873       1.87885180      -1.00491833       0.00000000
Si      -3.19152051       0.18928980      -0.44862242       0.00000000
Si       1.06064190      -1.17100665       2.86214040       0.00000000
Si      -2.77563681      -0.24545772       1.81296659       0.00000000
Si       2.95223670      -1.34534223       1.35351169       0.00000000
Si      -1.28704032      -2.85288399      -1.82451895       0.00000000
Si       0.09413991       0.53405366      -3.67899863       0.00000000
