10
Lattice="16.28999089631971 0.0 0.0 0.0 16.28999089631971 0.0 0.0 0.0 34.279985188174585" Properties=species:S:1:pos:R:3:initial_magmoms:R:1 pbc="T T T"
Si       1.89159480      -0.17433558      -1.50862871       0.00000000
Si       1.08343161      -1.31067711       1.74732038       0.00000000
Si      -1.86803946      -0.76338198      -1.43033318       0.00000000
Si       0.82940535       1.89534869      -1.65250189       0.00000000
Si      -1.98368217       1.82537662       1.83089503       0.00000000
Si      -1.06064190       1.17100665      -2.86214040       0.00000000
Si       2.03142816      -3.26806722       0.62396464       0.00000000
Si       2.49772941       0.11513772       3.08780365       0.00000000
Si      -3.83627871       0.92554893      -1.04917381       0.00000000
Si      -0.23340312      -2.53110762       3.23006910       0.00000000
