10
Lattice="16.28999089631971 0.0 0.0 0.0 16.28999089631971 0.0 0.0 0.0 34.279985188174585" Properties=species:S:1:pos:R:3:initial_magmoms:R:1 pbc="T T T"
Si      -1.35853713       1.35596168       1.36215025       0.00000000
Si       1.35811359      -1.35967545       1.36050481       0.00000000
Si      -1.34027604      -1.36998284      -1.38332844       0.00000000
Si       1.36637262       1.34012780      -1.39329706       0.00000000
Si      -2.71295289       2.71378205       0.00380508       0.00000000
Si       2.71580364       2.71251143       0.00013712       0.00000000
Si       2.71419093      -2.71608939       0.00366796       0.00000000
Si       0.00073305       2.71300013       2.71874714       0.00000000
Si      -2.71340901      -2.71970577       0.00126836       0.00000000
Si      -2.71461447      -0.00200530       2.71926134       0.00000000
