10
Lattice="16.28999089631971 0.0 0.0 0.0 16.28999089631971 0.0 0.0 0.0 34.279985188174585" Properties=species:S:1:pos:R:3:initial_magmoms:R:1 pbc="T T T"
Si       2.08468017      -0.97908994       0.34550816       0.00000000
Si      -1.91025404      -1.23158494       0.67024264       0.00000000
Si       0.48805492       1.72833153       1.57640028       0.00000000
Si      -0.05239841       0.72555660      -2.31009521       0.00000000
Si       0.01342948       3.08349663      -1.91844616       0.00000000
Si       1.88654490      -3.05401240      -0.66702032       0.00000000
Si      -3.48559478       0.53615440       1.02240113       0.00000000
Si       2.61798219       2.47651494       0.93361592       0.00000000
Si       1.38036573       0.57022005       3.45940092       0.00000000
Si      -2.27358620      -2.95910686      -0.93766096       0.00000000
