10
Lattice="16.28999089631971 0.0 0.0 0.0 16.28999089631971 0.0 0.0 0.0 34.279985188174585" Properties=species:S:1:pos:R:3:initial_magmoms:R:1 pbc="T T T"
Si      -1.34982198      -1.35077642       1.34860965       0.00000000
Si       1.35723393      -1.35623357      -1.36139609       0.00000000
Si      -1.35523026       1.35993889      -1.36057337       0.00000000
Si       1.36252818       1.36441864       1.39838422       0.00000000
Si       0.02531466      -2.67681500       2.73314475       0.00000000
Si       2.71262709      -2.71224575       0.00020568       0.00000000
Si      -2.71179630       2.71379753       0.00030852       0.00000000
Si      -2.71394658      -2.71281590       0.00061704       0.00000000
Si       0.00066789      -2.71367927      -2.71672462       0.00000000
Si      -2.71430496       0.00134986      -2.71655322       0.00000000
