10
Lattice="16.28999089631971 0.0 0.0 0.0 16.28999089631971 0.0 0.0 0.0 34.279985188174585" Properties=species:S:1:pos:R:3:initial_magmoms:R:1 pbc="T T T"
Si      -0.45093978       2.23946775      -0.41016025       0.00000000
Si       0.05082480      -0.93594195      -2.16406239       0.00000000
Si      -1.95077637      -0.33049152       1.30637669       0.00000000
Si       1.67480748      -0.76942557       1.57862848       0.00000000
Si      -1.56509433      -2.61759842       1.62778601       0.00000000
Si      -1.91238084      -0.13673826      -3.13696320       0.00000000
Si      -1.30579011       0.60777990       3.40678111       0.00000000
Si       1.03664673       3.50608041       0.81942922       0.00000000
Si       0.52834986      -2.59536257       2.65683746       0.00000000
Si      -0.47333853      -3.22498736      -2.08559546       0.00000000
