10
Lattice="16.28999089631971 0.0 0.0 0.0 16.28999089631971 0.0 0.0 0.0 34.279985188174585" Properties=species:S:1:pos:R:3:initial_magmoms:R:1 pbc="T T T"
Si       0.92541861       1.61536527       1.42257805       0.00000000
Si      -1.76034627      -1.14575715       1.17099367       0.00000000
Si      -0.92882322       1.75951548      -1.45061564       0.00000000
Si       1.89732888      -1.79028729      -0.06566918       0.00000000
Si       2.33836434       0.33259293       2.71435145       0.00000000
Si      -0.38755539      -2.39042718       2.68406507       0.00000000
Si       2.32673328       2.91020850       0.02732325       0.00000000
Si      -1.48177098       0.60144309      -3.58056943       0.00000000
Si       0.57391299       3.68968500      -1.33930846       0.00000000
Si      -2.77654905       2.84548833      -0.16545827       0.00000000
