10
Lattice="16.28999089631971 0.0 0.0 0.0 16.28999089631971 0.0 0.0 0.0 34.279985188174585" Properties=species:S:1:pos:R:3:initial_magmoms:R:1 pbc="T T T"
Si       1.48758651       1.26661266       1.22958948       0.00000000
Si       0.45093978      -2.23946775       0.41016025       0.00000000
Si      -2.07834336       1.03677705       0.49904830       0.00000000
Si       0.46621980       0.69698394      -2.23382220       0.00000000
Si      -1.49983659      -2.56995927       1.71653694       0.00000000
Si       0.37408356       2.98545201      -1.71026370       0.00000000
Si      -1.73187135       3.02744763      -0.71127581       0.00000000
Si       0.50176458      -3.17540970      -1.75390214       0.00000000
Si       1.81060092       3.27510450       0.09910349       0.00000000
Si      -1.26783441      -0.26121015      -3.58880793       0.00000000
