10
Lattice="16.28999089631971 0.0 0.0 0.0 16.28999089631971 0.0 0.0 0.0 34.279985188174585" Properties=species:S:1:pos:R:3:initial_magmoms:R:1 pbc="T T T"
Si      -1.35012660      -1.36081773       1.39502135       0.00000000
Si       1.37108043       1.35156501       1.39330735       0.00000000
Si       1.27883016      -1.49086080      -1.41139005       0.00000000
Si      -1.30655411       1.38484548      -1.61609310       0.00000000
Si      -2.71525697      -2.70484047       0.01187117       0.00000000
Si      -2.70596664       2.71635750      -0.01295099       0.00000000
Si       2.72999223       2.69254152       0.01203228       0.00000000
Si       2.71277370      -2.71621089       0.04263747       0.00000000
Si      -2.70417977      -0.00568521       2.75610892       0.00000000
Si       0.00982287       2.70938538       2.75593752       0.00000000
