10
Lattice="16.28999089631971 0.0 0.0 0.0 16.28999089631971 0.0 0.0 0.0 34.279985188174585" Properties=species:S:1:pos:R:3:initial_magmoms:R:1 pbc="T T T"
Si       1.35661491       1.35677781       1.35789953       0.00000000
Si      -1.35707103       1.35723393      -1.35707681       0.00000000
Si       1.35746199      -1.35755973      -1.35714537       0.00000000
Si      -1.35808101      -1.35786924       1.35728249       0.00000000
Si      -0.00063531       2.71375110      -2.71394794       0.00000000
Si       2.71539639       0.00042354      -2.71329662       0.00000000
Si       0.00195480      -2.71497285      -2.71405078       0.00000000
Si      -0.00273672      -2.71311579       2.71641610       0.00000000
Si      -2.71365336       0.00278559       2.71597046       0.00000000
Si       2.71495656       2.71480995       0.00027424       0.00000000
