10
Lattice="16.28999089631971 0.0 0.0 0.0 16.28999089631971 0.0 0.0 0.0 34.279985188174585" Properties=species:S:1:pos:R:3:initial_magmoms:R:1 pbc="T T T"
Si       1.86342939      -1.42444647       0.03616540       0.00000000
Si      -1.40457267      -1.81556937      -0.53555651       0.00000000
Si      -0.06125040       2.00797056      -1.29410444       0.00000000
Si      -0.57832758       0.73394595       2.20492416       0.00000000
Si       1.46293974      -2.30231457       2.23509056       0.00000000
Si       3.53859525       0.18715581       0.20578287       0.00000000
Si      -0.28064412       3.06362772       1.93592897       0.00000000
Si      -2.87643933       0.05004288       2.25408169       0.00000000
Si      -3.49840782      -1.18250739       0.27917636       0.00000000
Si       1.34601012      -0.30144645       3.44116396       0.00000000
