10
Lattice="16.28999089631971 0.0 0.0 0.0 16.28999089631971 0.0 0.0 0.0 34.279985188174585" Properties=species:S:1:pos:R:3:initial_magmoms:R:1 pbc="T T T"
Si       1.35704334       1.35708732      -1.35697397       0.00000000
Si      -1.35695930      -1.35798327      -1.35680257       0.00000000
Si      -1.35736261       1.35738054       1.35820805       0.00000000
Si       1.35774381      -1.35755973       1.35813949       0.00000000
Si      -2.71500773       0.00030951       2.71425646       0.00000000
Si      -2.71464935       2.71469592      -0.00013712       0.00000000
Si       2.71496145       2.71495656       0.00013712       0.00000000
Si      -2.71490999      -2.71508688       0.00013712       0.00000000
Si       2.71471710      -0.00019548       2.71549054       0.00000000
Si       0.00112727      -2.71508688       2.71521630       0.00000000
