10
Lattice="16.28999089631971 0.0 0.0 0.0 16.28999089631971 0.0 0.0 0.0 34.279985188174585" Properties=species:S:1:pos:R:3:initial_magmoms:R:1 pbc="T T T"
Si       1.34982198       1.35077642      -1.34860965       0.00000000
Si      -1.48118454       1.21800330       1.35604841       0.00000000
Si      -1.36412460      -1.36203948      -1.34799261       0.00000000
Si       1.37513664      -1.32603858       1.38453510       0.00000000
Si      -0.38173986      -2.24911143       2.73194495       0.00000000
Si      -2.22739686      -0.58891608       2.78871263       0.00000000
Si      -0.05936076       2.45920912       2.87777208       0.00000000
Si       2.70705591      -0.00545715      -2.71000574       0.00000000
Si      -0.00540828       2.71071531      -2.70918302       0.00000000
Si       2.71235016       2.71519506       0.04977457       0.00000000
