10
Lattice="16.28999089631971 0.0 0.0 0.0 16.28999089631971 0.0 0.0 0.0 34.279985188174585" Properties=species:S:1:pos:R:3:initial_magmoms:R:1 pbc="T T T"
Si      -1.35681039      -1.35536058      -1.37682209       0.00000000
Si       1.35830907       1.35870003      -1.37606793       0.00000000
Si       1.38947184      -1.30870602       1.44558778       0.00000000
Si      -1.41403716       1.28648646       1.44829590       0.00000000
Si       2.70484047      -2.70444625      -0.01350632       0.00000000
Si      -2.70664052      -2.71309787       0.00582760       0.00000000
Si      -2.71029273       2.70951570       0.00603328       0.00000000
Si       2.71389771       2.73035061      -0.01504892       0.00000000
Si      -2.71274275       0.00184077      -2.73640135       0.00000000
Si       0.00037467      -2.71416487      -2.73643563       0.00000000
