10
Lattice="16.28999089631971 0.0 0.0 0.0 16.28999089631971 0.0 0.0 0.0 34.279985188174585" Properties=species:S:1:pos:R:3:initial_magmoms:R:1 pbc="T T T"
Si       1.32934545      -1.19922256       1.57251636       0.00000000
Si       1.02708450       1.61208772      -1.47090841       0.00000000
Si      -0.76585806      -1.86314661      -1.44207892       0.00000000
Si      -1.37582082       1.48761583       1.53437985       0.00000000
Si       2.60105688      -2.61732474       0.23699481       0.00000000
Si      -0.96953193       2.80619359      -2.25749738       0.00000000
Si      -2.67040341      -2.61269838      -0.00324632       0.00000000
Si      -0.02800251      -2.56860135       2.93134488       0.00000000
Si       2.61000009       2.90647483      -0.02433880       0.00000000
Si      -2.68736130       2.89676599       0.06238618       0.00000000
