10
Lattice="16.28999089631971 0.0 0.0 0.0 16.28999089631971 0.0 0.0 0.0 34.279985188174585" Properties=species:S:1:pos:R:3:initial_magmoms:R:1 pbc="T T T"
Si      -1.35793440      -1.35714271       1.35639121       0.00000000
Si       1.35698958       1.35803214       1.35649405       0.00000000
Si       1.35715248      -1.35812174      -1.36081333       0.00000000
Si      -1.35808101       1.35752715      -1.36184173       0.00000000
Si      -0.00234576      -2.70169487      -2.71713941       0.00000000
Si      -0.00053757      -2.71448080       2.71439358       0.00000000
Si       2.71425741       0.00034209       2.71463354       0.00000000
Si      -2.71531494       0.00089595       2.71429074       0.00000000
Si      -0.00115659       2.71541268       2.71435930       0.00000000
Si       2.71478767      -2.71518691       0.00000000       0.00000000
