10
Lattice="16.28999089631971 0.0 0.0 0.0 16.28999089631971 0.0 0.0 0.0 34.279985188174585" Properties=species:S:1:pos:R:3:initial_magmoms:R:1 pbc="T T T"
Si      -1.35099486      -1.33859817      -1.40280634       0.00000000
Si       1.36173523       1.37756385      -1.39948118       0.00000000
Si      -1.46875527       1.24028802       1.51116543       0.00000000
Si       1.37229088      -1.52967987       1.63405925       0.00000000
Si      -2.70453096      -2.69239165      -0.00541624       0.00000000
Si       2.72831340      -2.69776898      -0.02084224       0.00000000
Si      -2.71498914       2.72929176      -0.01090104       0.00000000
Si       2.72466118       2.72484459      -0.02063656       0.00000000
Si       0.00495216      -2.69878385      -2.76283123       0.00000000
Si      -2.70783783       0.01752804      -2.76379107       0.00000000
