10
Lattice="16.28999089631971 0.0 0.0 0.0 16.28999089631971 0.0 0.0 0.0 34.279985188174585" Properties=species:S:1:pos:R:3:initial_magmoms:R:1 pbc="T T T"
Si       1.11720078      -1.46705510      -1.47434871       0.00000000
Si      -1.31833341      -1.54601273       1.23493716       0.00000000
Si      -1.60109523       1.25972215      -1.44113138       0.00000000
Si       1.71600489       0.60973323       1.76010682       0.00000000
Si       2.47572661       2.42243393       0.19834411       0.00000000
Si       2.47795858      -2.77292666      -0.01350632       0.00000000
Si       2.46872991      -0.10721477      -2.84047544       0.00000000
Si      -2.80117953      -0.32046716       2.50881640       0.00000000
Si      -0.24755913       2.61351563      -2.83852148       0.00000000
Si       3.54815815      -1.08552701       1.36811497       0.00000000
