10
Lattice="16.28999089631971 0.0 0.0 0.0 16.28999089631971 0.0 0.0 0.0 34.279985188174585" Properties=species:S:1:pos:R:3:initial_magmoms:R:1 pbc="T T T"
Si       0.97042788      -0.47069955       2.12107527       0.00000000
Si       1.24761852       1.40921532      -1.46828115       0.00000000
Si      -1.50768837      -1.22846148      -1.45374642       0.00000000
Si      -0.87695586       1.85976414       1.30003488       0.00000000
Si      -0.53621793      -2.22405741       2.25627561       0.00000000
Si      -2.58266547       2.82383892      -0.07610161       0.00000000
Si       2.64486069       2.85384510      -0.13657154       0.00000000
Si       0.01184283      -2.52346435      -2.98486282       0.00000000
Si      -2.75986809      -2.77945030      -0.15686530       0.00000000
Si       0.75634470       3.68248482       1.23157772       0.00000000
