10
Lattice="16.28999089631971 0.0 0.0 0.0 16.28999089631971 0.0 0.0 0.0 34.279985188174585" Properties=species:S:1:pos:R:3:initial_magmoms:R:1 pbc="T T T"
Si      -0.82867230      -0.95458748      -2.08045346       0.00000000
Si       1.72377522      -1.63125942       0.67123677       0.00000000
Si       1.28607921       1.67601294      -1.31121017       0.00000000
Si      -1.10100852       0.50979555       2.17355796       0.00000000
Si       3.14497739       0.23758965      -1.52645431       0.00000000
Si       0.74666844      -2.72232683      -2.43261195       0.00000000
Si      -3.09762495       1.70390142       1.38696898       0.00000000
Si      -0.97257816       0.63355068      -3.80333220       0.00000000
Si       1.69919361       3.63343563      -0.09303593       0.00000000
Si       1.34856765      -3.77941751      -0.29268268       0.00000000
