10
Lattice="16.28999089631971 0.0 0.0 0.0 16.28999089631971 0.0 0.0 0.0 34.279985188174585" Properties=species:S:1:pos:R:3:initial_magmoms:R:1 pbc="T T T"
Si      -1.28142027       1.31567814       1.57780233       0.00000000
Si      -1.58291559      -1.29438711      -1.44656960       0.00000000
Si       1.64950164       1.21362129      -1.45757348       0.00000000
Si       1.42555419      -1.38802203       1.56931117       0.00000000
Si      -2.63508669       2.73486294       0.17495486       0.00000000
Si      -2.61000009      -2.90647483       0.02433880       0.00000000
Si       2.83425705       2.70166392      -0.05865309       0.00000000
Si      -2.63638989      -0.04647537       2.95215284       0.00000000
Si       0.07946262       2.66914908       2.95037028       0.00000000
Si       2.87034102      -2.75884997       0.28904214       0.00000000
