10
Lattice="16.28999089631971 0.0 0.0 0.0 16.28999089631971 0.0 0.0 0.0 34.279985188174585" Properties=species:S:1:pos:R:3:initial_magmoms:R:1 pbc="T T T"
Si       1.37448504       1.37759643       1.35347741       0.00000000
Si       1.41403716      -1.28648646      -1.44829590       0.00000000
Si      -1.29625557       1.42302924      -1.44226262       0.00000000
Si      -1.40021347      -1.30284162       1.67828045       0.00000000
Si       2.02154013      -0.61581087       2.40683339       0.00000000
Si      -2.56637726       2.74396905       0.13434334       0.00000000
Si       2.80350900      -2.59519248      -0.00270812       0.00000000
Si       0.05722677      -2.64184704      -2.82511800       0.00000000
Si      -2.65918152       0.07574850      -2.82110724       0.00000000
Si      -2.64862588      -2.83149522       0.21243319       0.00000000
