10
Lattice="16.28999089631971 0.0 0.0 0.0 16.28999089631971 0.0 0.0 0.0 34.279985188174585" Properties=species:S:1:pos:R:3:initial_magmoms:R:1 pbc="T T T"
Si      -2.24841096       0.62117028       0.35376964       0.00000000
Si       0.34880148       2.17807074      -0.88720079       0.00000000
Si       0.90802089      -0.66368718       2.11689311       0.00000000
Si       1.64335149      -1.12034475      -2.30790129       0.00000000
Si      -1.92539655       2.62966212      -0.77671634       0.00000000
Si       3.02748021      -1.50833997       1.38443226       0.00000000
Si      -0.75482973      -2.23656813       2.80276744       0.00000000
Si       1.25933103       2.00735154      -3.00549938       0.00000000
Si      -3.73599747      -0.64544238      -0.87581983       0.00000000
Si       3.73612032      -0.70029081      -0.83245563       0.00000000
