10
Lattice="16.28999089631971 0.0 0.0 0.0 16.28999089631971 0.0 0.0 0.0 34.279985188174585" Properties=species:S:1:pos:R:3:initial_magmoms:R:1 pbc="T T T"
Si      -1.34594496      -1.35094599      -1.34456461       0.00000000
Si       1.35641943      -1.35418770       1.35800237       0.00000000
Si      -1.35713619       1.36050822       1.35906505       0.00000000
Si       1.37347506       1.34557029      -1.38519670       0.00000000
Si      -0.03271032       2.67123420      -2.72049542       0.00000000
Si      -2.75889069      -0.06817365      -2.63633801       0.00000000
Si      -0.00013032      -2.71256193       2.71501062       0.00000000
Si       2.71577106      -2.71231758      -0.00510772       0.00000000
Si       0.00122175      -2.64660372      -2.78052314       0.00000000
Si      -2.71461447      -2.71508688       0.00030852       0.00000000
