10
Lattice="16.28999089631971 0.0 0.0 0.0 16.28999089631971 0.0 0.0 0.0 34.279985188174585" Properties=species:S:1:pos:R:3:initial_magmoms:R:1 pbc="T T T"
Si       1.35744668      -1.35713456      -1.35783097       0.00000000
Si      -1.35726783       1.35769005      -1.35813949       0.00000000
Si       1.35876943       1.35769005       1.35693969       0.00000000
Si      -1.35848958      -1.35826346       1.35717965       0.00000000
Si      -2.71425741      -0.00034209      -2.71463354       0.00000000
Si      -2.71479498      -2.71482289      -0.00023996       0.00000000
Si       0.00068286       2.71479366      -2.71507918       0.00000000
Si       2.71507646      -2.71491569      -0.00106268       0.00000000
Si       0.00053027      -2.71552900      -2.71463354       0.00000000
Si      -2.71541400       2.71507059      -0.00027424       0.00000000
