10
Lattice="16.28999089631971 0.0 0.0 0.0 16.28999089631971 0.0 0.0 0.0 34.279985188174585" Properties=species:S:1:pos:R:3:initial_magmoms:R:1 pbc="T T T"
Si       0.60854553      -0.13862790       2.27608945       0.00000000
Si      -2.33334050      -0.25730055      -0.28373560       0.00000000
Si       1.45171593      -1.66127049      -0.91140248       0.00000000
Si       0.08105904       2.28600828      -0.74113369       0.00000000
Si       0.20654091       2.12571468       2.73862955       0.00000000
Si      -2.19475333      -0.08982306      -2.83276244       0.00000000
Si       1.36767582       3.20131080       0.99086353       0.00000000
Si       0.86931585       1.95437646      -2.93543105       0.00000000
Si       3.45448998      -1.33569855       0.28363276       0.00000000
Si      -3.44218288       1.03721688       1.45864846       0.00000000
