10
Lattice="16.28999089631971 0.0 0.0 0.0 16.28999089631971 0.0 0.0 0.0 34.279985188174585" Properties=species:S:1:pos:R:3:initial_magmoms:R:1 pbc="T T T"
Si       2.10495212       0.55019475       0.88528111       0.00000000
Si      -0.29056473      -2.02463523      -1.20418799       0.00000000
Si      -1.29670029      -0.76563000       1.85965596       0.00000000
Si      -0.88154964       2.04387372      -0.88757787       0.00000000
Si      -2.57324985      -1.74272049      -1.40575442       0.00000000
Si      -3.28924422      -0.81761139       0.68937089       0.00000000
Si       0.25831053      -3.74404473       0.19820699       0.00000000
Si      -0.78815907      -3.07105596       2.16995856       0.00000000
Si       3.27858146       1.94896818      -0.61693724       0.00000000
Si      -0.51821748       3.77139564       0.72032573       0.00000000
