10
Lattice="16.28999089631971 0.0 0.0 0.0 16.28999089631971 0.0 0.0 0.0 34.279985188174585" Properties=species:S:1:pos:R:3:initial_magmoms:R:1 pbc="T T T"
Si       1.35787954       1.35694561      -1.35669973       0.00000000
Si      -1.35663120      -1.35733167      -1.35762529       0.00000000
Si       1.35777122      -1.35742941       1.35735105       0.00000000
Si      -1.35744570       1.35765172       1.35769385       0.00000000
Si      -2.71591767      -0.00004887       2.71274814       0.00000000
Si       0.00029322      -2.71474479       2.71415362       0.00000000
Si       2.71472754       0.00084708       2.71425646       0.00000000
Si      -0.00114030       2.71421115       2.71511346       0.00000000
Si      -2.71484253       2.71498981      -0.00030852       0.00000000
Si      -2.71510317      -2.71476108       0.00037708       0.00000000
