10
Lattice="16.28999089631971 0.0 0.0 0.0 16.28999089631971 0.0 0.0 0.0 34.279985188174585" Properties=species:S:1:pos:R:3:initial_magmoms:R:1 pbc="T T T"
Si      -1.35539316       1.35601218      -1.36160177       0.00000000
Si       1.36081773      -1.35868374      -1.36019629       0.00000000
Si       1.36819710       1.34988714       1.36496121       0.00000000
Si      -1.34299647      -1.37497374       1.38196410       0.00000000
Si      -2.68731243       0.03543075       2.73293907       0.00000000
Si      -2.71262709       2.71224575      -0.00020568       0.00000000
Si      -2.71085148      -2.71710684       0.00082272       0.00000000
Si      -2.71195920      -0.00143352      -2.71693030       0.00000000
Si       2.71540014      -2.71362078       0.00023996       0.00000000
Si       2.71972623       2.70972747      -0.00116552       0.00000000
