10
Lattice="16.28999089631971 0.0 0.0 0.0 16.28999089631971 0.0 0.0 0.0 34.279985188174585" Properties=species:S:1:pos:R:3:initial_magmoms:R:1 pbc="T T T"
Si       1.91025404       1.23158494      -0.67024264       0.00000000
Si      -0.36333216      -1.72752192      -1.60790360       0.00000000
Si      -1.57534074       1.76773934       0.35215848       0.00000000
Si       0.60189921      -1.05709068       2.13992927       0.00000000
Si       0.97710678       1.09106740       3.10384871       0.00000000
Si      -0.74666844       2.72232683       2.43261195       0.00000000
Si      -3.70325457       0.91110200       0.03246316       0.00000000
Si      -2.62190808      -1.68492357      -2.21222580       0.00000000
Si       0.51821748      -3.77139564      -0.72032573       0.00000000
Si       2.39830895       2.95991648       0.90615763       0.00000000
