10
Lattice="16.28999089631971 0.0 0.0 0.0 16.28999089631971 0.0 0.0 0.0 34.279985188174585" Properties=species:S:1:pos:R:3:initial_magmoms:R:1 pbc="T T T"
Si       0.37520757       2.14815808       0.96391944       0.00000000
Si       2.21997581      -0.85327020       0.31849552       0.00000000
Si      -0.96943419      -2.03426262       0.96604480       0.00000000
Si      -0.60189921       1.05709068      -2.13992927       0.00000000
Si       0.77238450       1.25845137       3.06148107       0.00000000
Si       2.02127039      -2.16411021      -1.97497389       0.00000000
Si      -2.42523891      -1.04948325       2.68912922       0.00000000
Si       1.30835483       2.28867562      -2.81017192       0.00000000
Si      -1.38038202      -3.47993496      -1.00059905       0.00000000
Si       3.80891870       0.87483816      -0.20307475       0.00000000
