10
Lattice="16.28999089631971 0.0 0.0 0.0 16.28999089631971 0.0 0.0 0.0 34.279985188174585" Properties=species:S:1:pos:R:3:initial_magmoms:R:1 pbc="T T T"
Si       1.39115948       1.22960178      -1.42399622       0.00000000
Si      -1.34409479       1.35498591       1.39063351       0.00000000
Si       1.38715214      -1.36966320       1.36494065       0.00000000
Si      -1.23444773      -1.02780126      -1.80179615       0.00000000
Si       2.56558703      -0.49873464      -2.53600528       0.00000000
Si       0.77226980      -2.00236680      -2.98856990       0.00000000
Si      -2.66536721      -2.62624122      -0.31479671       0.00000000
Si      -2.69656256       0.00221544       2.74998651       0.00000000
Si      -2.78671142       2.67069663       0.05735045       0.00000000
Si       0.01833765      -2.71414206       2.74693559       0.00000000
