10
Lattice="16.28999089631971 0.0 0.0 0.0 16.28999089631971 0.0 0.0 0.0 34.279985188174585" Properties=species:S:1:pos:R:3:initial_magmoms:R:1 pbc="T T T"
Si       0.40200462      -2.26434258      -0.46254010       0.00000000
Si       1.16113491       1.07559612      -1.74776602       0.00000000
Si       0.49713822       0.60580881       2.23296520       0.00000000
Si      -2.18497770       0.67958622      -0.84047715       0.00000000
Si      -0.20654091      -2.12571468      -2.73862955       0.00000000
Si      -0.12548187       0.16029360      -3.47976324       0.00000000
Si      -1.38771252      -0.49634001       3.18495520       0.00000000
Si       0.73798587       2.90478393       1.93846569       0.00000000
Si      -3.09205703       2.02318542       0.81202474       0.00000000
Si      -1.98803160       1.51824429      -3.01701746       0.00000000
