10
Lattice="16.28999089631971 0.0 0.0 0.0 16.28999089631971 0.0 0.0 0.0 34.279985188174585" Properties=species:S:1:pos:R:3:initial_magmoms:R:1 pbc="T T T"
Si      -1.39602109       0.79589682       1.70745274       0.00000000
Si       0.31158209       1.93344381      -1.30113184       0.00000000
Si       2.01592660      -0.58608162       1.07179862       0.00000000
Si      -0.62156191      -2.03238927      -1.21272371       0.00000000
Si       1.21866142       0.58984461      -2.95363373       0.00000000
Si      -0.84714583      -0.92351268       3.10984771       0.00000000
Si      -0.24508468      -1.17823941      -3.39313767       0.00000000
Si       1.51145788      -0.58459923       3.36804471       0.00000000
Si      -2.72813584      -2.77979076      -0.41358825       0.00000000
Si      -1.60303441       3.33361818      -1.33177817       0.00000000
