10
Lattice="16.28999089631971 0.0 0.0 0.0 16.28999089631971 0.0 0.0 0.0 34.279985188174585" Properties=species:S:1:pos:R:3:initial_magmoms:R:1 pbc="T T T"
Si      -1.17442755       1.72833642       1.11200906       0.00000000
Si       1.84946886      -1.05334398       1.06312577       0.00000000
Si      -1.79331723      -1.50363216      -0.45256462       0.00000000
Si      -1.21016781      -0.95941584      -2.90526465       0.00000000
Si       0.28577547      -2.30871654       2.33916950       0.00000000
Si       1.30046328       2.29553793      -2.16502223       0.00000000
Si      -2.25671886       2.25636048      -1.26229260       0.00000000
Si       0.99776250       0.12167001      -3.39262347       0.00000000
Si      -2.56558703       0.49873464       2.53600528       0.00000000
Si      -1.06675065      -3.57739803       0.70589385       0.00000000
