10
Lattice="16.28999089631971 0.0 0.0 0.0 16.28999089631971 0.0 0.0 0.0 34.279985188174585" Properties=species:S:1:pos:R:3:initial_magmoms:R:1 pbc="T T T"
Si      -1.35593236       1.35720135      -1.35957925       0.00000000
Si       1.35718506      -1.35880429      -1.35961353       0.00000000
Si       1.35681039       1.35536058       1.37682209       0.00000000
Si      -1.34983013      -1.35773729       1.38264970       0.00000000
Si       2.71285515      -2.71256973       0.00006856       0.00000000
Si       2.71511946       2.71406061       0.00075416       0.00000000
Si      -2.71470179      -0.00048870      -2.71651894       0.00000000
Si       0.00068418       2.71472850      -2.71665606       0.00000000
Si      -2.71284935      -2.71929689      -0.00126836       0.00000000
Si       2.71526607      -0.00047241      -2.71713598       0.00000000
