10
Lattice="16.28999089631971 0.0 0.0 0.0 16.28999089631971 0.0 0.0 0.0 34.279985188174585" Properties=species:S:1:pos:R:3:initial_magmoms:R:1 pbc="T T T"
Si      -1.35246777      -1.35277047       1.35935300       0.00000000
Si       1.36055909       1.36464588       1.36137552       0.00000000
Si       1.34409479      -1.35498591      -1.39063351       0.00000000
Si      -1.44261663       1.31571072      -1.33328306       0.00000000
Si       0.20537166       2.51436150      -2.44594584       0.00000000
Si      -2.69650680      -2.72344365      -0.02433538       0.00000000
Si       0.00148750      -2.70884781       2.71841806       0.00000000
Si       2.72271097       2.70589005       0.01907339       0.00000000
Si      -2.71170537       0.00604359       2.71845234       0.00000000
Si       2.71632529       0.00676035       2.71941218       0.00000000
