10
Lattice="16.28999089631971 0.0 0.0 0.0 16.28999089631971 0.0 0.0 0.0 34.279985188174585" Properties=species:S:1:pos:R:3:initial_magmoms:R:1 pbc="T T T"
Si       1.33450938      -1.31168709      -1.38285538       0.00000000
Si       1.64377503       1.13107564       1.32913861       0.00000000
Si      -1.39071802       1.41570756      -1.35868797       0.00000000
Si      -1.67430901      -0.92416428       1.46598439       0.00000000
Si       2.63502153      -2.68651422       0.07575881       0.00000000
Si      -2.74674055       2.58379667       0.29621352       0.00000000
Si      -2.74450857      -2.61156393       0.08436309       0.00000000
Si      -0.03762990      -2.65978233      -2.74034355       0.00000000
Si       2.67196725       0.06087511      -2.74126911       0.00000000
Si      -2.75373725       0.05414796      -2.74260603       0.00000000
