10
Lattice="16.28999089631971 0.0 0.0 0.0 16.28999089631971 0.0 0.0 0.0 34.279985188174585" Properties=species:S:1:pos:R:3:initial_magmoms:R:1 pbc="T T T"
Si       1.67430901       0.92416428      -1.46598439       0.00000000
Si      -1.07019957      -1.68739965      -1.38162130       0.00000000
Si       0.79802104      -1.86528645       1.34257637       0.00000000
Si      -1.83215326       1.69526025       0.39199185       0.00000000
Si       0.28359098       2.33987184      -2.82467236       0.00000000
Si      -2.43095737      -0.38152809      -2.84246368       0.00000000
Si      -2.21879641      -3.11753133       0.14339326       0.00000000
Si      -1.07243154       3.50796095      -1.16977087       0.00000000
Si       2.57973979      -2.86156656      -0.10592521       0.00000000
Si       3.31808404       2.05523992      -0.13684578       0.00000000
