10
Lattice="10.86 0.0 0.0 0.0 10.86 0.0 0.0 0.0 10.86" Properties=species:S:1:pos:R:3:initial_magmoms:R:1 pbc="T T T"
Si      -1.28094786       1.37859012      -1.40008206       0.00000000
Si       1.43405214       1.37859012       1.31491794       0.00000000
Si       1.43405214      -1.33640988      -1.40008206       0.00000000
Si       0.02345760      -2.50157928       2.25300474       0.00000000
Si      -2.63844786       0.02109012      -2.75758206       0.00000000
Si       0.07655214      -2.69390988      -2.75758206       0.00000000
Si       2.79155214       0.02109012       2.67241794       0.00000000
Si      -2.68075842      -2.79930618      -0.10372386       0.00000000
Si       2.79155214      -2.69390988      -0.04258206       0.00000000
Si       0.07655214       2.73609012      -2.75758206       0.00000000
