10
Lattice="10.86 0.0 0.0 0.0 10.86 0.0 0.0 0.0 10.86" Properties=species:S:1:pos:R:3:initial_magmoms:R:1 pbc="T T T"
Si      -1.41543810       1.41719742      -1.17061026       0.00000000
Si      -1.41543810      -1.29780258       1.54438974       0.00000000
Si       1.29956190       1.41719742       1.54438974       0.00000000
Si       2.51698962       0.33719214      -2.36614422       0.00000000
Si       2.57248422      -2.62326558       0.08093958       0.00000000
Si      -0.05793810       2.77469742      -2.52811026       0.00000000
Si       2.65706190       2.77469742       0.18688974       0.00000000
Si      -2.77293810       2.77469742       0.18688974       0.00000000
Si      -0.05793810      -2.65530258       2.90188974       0.00000000
Si       2.65706190       0.05969742       2.90188974       0.00000000
