10
Lattice="10.86 0.0 0.0 0.0 10.86 0.0 0.0 0.0 10.86" Properties=species:S:1:pos:R:3:initial_magmoms:R:1 pbc="T T T"
Si       1.44739908       1.05673230       1.65243588       0.00000000
Si       1.44739908      -1.65826770      -1.06256412       0.00000000
Si      -1.26085686       1.58203050      -1.53435510       0.00000000
Si      -1.26760092      -1.65826770       1.65243588       0.00000000
Si      -2.44548738       2.17583358       0.36521094       0.00000000
Si      -2.43937320      -0.06638718      -2.47033506       0.00000000
Si       2.65982034       2.54245632       0.09585036       0.00000000
Si       2.80062024      -0.03863988      -2.52999990       0.00000000
Si       0.08989908       2.41423230       3.00993588       0.00000000
Si       0.08989908      -3.01576770      -2.42006412       0.00000000
