10
Lattice="10.86 0.0 0.0 0.0 10.86 0.0 0.0 0.0 10.86" Properties=species:S:1:pos:R:3:initial_magmoms:R:1 pbc="T T T"
Si       1.32950292      -1.29498984      -1.41980382       0.00000000
Si       1.32950292       1.42001016       1.29519618       0.00000000
Si      -1.38549708       1.42001016      -1.41980382       0.00000000
Si      -0.03227592      -2.39036202       2.54276040       0.00000000
Si       2.68700292      -2.65248984      -0.06230382       0.00000000
Si       2.68700292       0.06251016       2.65269618       0.00000000
Si      -0.16068456       2.81105670       2.59350918       0.00000000
Si      -0.02799708      -2.65248984      -2.77730382       0.00000000
Si      -2.72229792       2.72875962      -0.07240362       0.00000000
Si       2.68700292       0.06251016      -2.77730382       0.00000000
