10
Lattice="10.86 0.0 0.0 0.0 10.86 0.0 0.0 0.0 10.86" Properties=species:S:1:pos:R:3:initial_magmoms:R:1 pbc="T T T"
Si       1.36248474       1.35251526      -1.34955048       0.00000000
Si      -1.35251526      -1.36248474      -1.34955048       0.00000000
Si      -1.35251526       1.35251526       1.36544952       0.00000000
Si       1.41630690      -1.41630690       1.41642636       0.00000000
Si       2.67740268      -2.67740268       0.01761492       0.00000000
Si       0.00498474       2.71001526      -2.70705048       0.00000000
Si      -2.71001526      -0.00498474      -2.70705048       0.00000000
Si      -2.71001526       2.71001526       0.00794952       0.00000000
Si       2.71998474      -0.00498474      -2.70705048       0.00000000
Si       0.00498474      -2.71998474      -2.70705048       0.00000000
