10
Lattice="10.86 0.0 0.0 0.0 10.86 0.0 0.0 0.0 10.86" Properties=species:S:1:pos:R:3:initial_magmoms:R:1 pbc="T T T"
Si      -2.01436710      -1.10621046       0.40832514       0.00000000
Si       1.90310640       0.08551164       1.49618220       0.00000000
Si       0.70063290      -1.10621046      -2.30667486       0.00000000
Si      -0.65686710      -2.46371046       1.76582514       0.00000000
Si       2.05813290      -2.46371046      -0.94917486       0.00000000
Si       0.70063290      -1.10621046       3.12332514       0.00000000
Si      -2.01436710       1.60878954      -2.30667486       0.00000000
Si      -0.59128356       2.96401980       1.96582290       0.00000000
Si       3.41563290      -1.10621046       0.40832514       0.00000000
Si       1.52230050       0.38248920      -3.46099512       0.00000000
