10
Lattice="10.86 0.0 0.0 0.0 10.86 0.0 0.0 0.0 10.86" Properties=species:S:1:pos:R:3:initial_magmoms:R:1 pbc="T T T"
Si      -1.32960066       1.29817182      -1.22420436       0.00000000
Si       1.38539934      -1.41682818      -1.22420436       0.00000000
Si       1.38539934       1.29817182       1.49079564       0.00000000
Si      -1.31200746      -1.57793628       1.70951604       0.00000000
Si       0.02789934       2.65567182      -2.58170436       0.00000000
Si      -2.68710066      -0.05932818      -2.58170436       0.00000000
Si       2.76081834      -2.50921386       0.16591908       0.00000000
Si       2.74289934      -0.05932818      -2.58170436       0.00000000
Si      -2.68710066       2.65567182       0.13329564       0.00000000
Si       0.02789934      -2.77432818      -2.58170436       0.00000000
