10
Lattice="10.86 0.0 0.0 0.0 10.86 0.0 0.0 0.0 10.86" Properties=species:S:1:pos:R:3:initial_magmoms:R:1 pbc="T T T"
Si      -1.76549934      -1.28186010      -0.48253152       0.00000000
Si       1.50325206       1.56705456      -0.65308782       0.00000000
Si       1.35492618      -1.29484866       1.77698922       0.00000000
Si      -2.58716694      -0.05555976      -2.04321126       0.00000000
Si       0.12783306       2.65944024      -2.04321126       0.00000000
Si       0.12783306      -2.77055976      -2.04321126       0.00000000
Si       2.84283306      -0.05555976      -2.04321126       0.00000000
Si      -2.56957374       2.49833214       0.89050914       0.00000000
Si      -1.22966694       1.30194024      -3.40071126       0.00000000
Si      -2.58716694      -2.77055976       0.67178874       0.00000000
