10
Lattice="16.28999089631971 0.0 0.0 0.0 16.28999089631971 0.0 0.0 0.0 34.397273925272025" Properties=species:S:1:pos:R:3:initial_magmoms:R:1 pbc="T T T"
Si       1.91170643       0.05664033      -1.34641325       0.00000000
Si      -1.57739069      -1.51562160      -0.84355922       0.00000000
Si       0.15501564      -0.68999553       2.27569052       0.00000000
Si      -0.81536078       2.22146308      -0.41252674       0.00000000
Si      -2.86190606      -0.04461831      -2.12224419       0.00000000
Si      -0.73420400       3.11618156       1.81972000       0.00000000
Si       0.99678510       0.22270059      -3.57735288       0.00000000
Si       0.48998202      -3.06427932       2.09359125       0.00000000
Si      -3.12536423       1.90253421      -0.85766211       0.00000000
Si       3.10848386       2.02329360      -0.80001224       0.00000000
