10
Lattice="16.28999089631971 0.0 0.0 0.0 16.28999089631971 0.0 0.0 0.0 34.397273925272025" Properties=species:S:1:pos:R:3:initial_magmoms:R:1 pbc="T T T"
Si      -1.37819916      -1.33589566       1.37791085       0.00000000
Si      -1.23890337       1.48726071      -1.35888226       0.00000000
Si       1.34229600       1.37630952       1.37859879       0.00000000
Si       1.37510406      -1.45317714      -1.48265060       0.00000000
Si       2.70602964      -2.69699588       0.02042855       0.00000000
Si      -2.72805372      -2.68845992      -0.00737822       0.00000000
Si       2.70067023       2.72981304       0.00977571       0.00000000
Si      -0.01712079      -2.69528271       2.73887415       0.00000000
Si      -2.71252935       2.72305269       0.03693925       0.00000000
Si       2.69881317       0.02006928       2.73959649       0.00000000
