10
Lattice="16.28999089631971 0.0 0.0 0.0 16.28999089631971 0.0 0.0 0.0 34.397273925272025" Properties=species:S:1:pos:R:3:initial_magmoms:R:1 pbc="T T T"
Si       1.35702216      -1.35612893      -1.35783315       0.00000000
Si       1.35747828       1.35736220       1.35776435       0.00000000
Si      -1.35773892      -1.35801857       1.35752357       0.00000000
Si      -1.36107837       1.35938705      -1.36096330       0.00000000
Si       2.71549413      -2.71403075       0.00034397       0.00000000
Si      -2.71450044      -0.00090688       2.71515033       0.00000000
Si       0.00000000       2.71471668       2.71497835       0.00000000
Si       2.71464705      -0.00014813       2.71542551       0.00000000
Si      -0.00076563      -2.71495928       2.71587268       0.00000000
Si      -2.71577106       2.71533570       0.00113511       0.00000000
