10
Lattice="16.28999089631971 0.0 0.0 0.0 16.28999089631971 0.0 0.0 0.0 34.397273925272025" Properties=species:S:1:pos:R:3:initial_magmoms:R:1 pbc="T T T"
Si      -1.35811359      -1.35657256       1.35690442       0.00000000
Si       1.35703845       1.35816246       1.35666364       0.00000000
Si       1.35747828      -1.35735448      -1.35721400       0.00000000
Si      -1.35827649       1.35790182      -1.35724839       0.00000000
Si       2.70764235       0.00316026       2.71594147       0.00000000
Si       2.71419093       2.71477737      -0.00013759       0.00000000
Si       2.71464705      -2.71486480       0.00044716       0.00000000
Si      -2.71451673       2.71507059      -0.00065355       0.00000000
Si      -2.71577106       0.00061902      -2.71384324       0.00000000
Si       0.00000000      -2.71471668      -2.71497835       0.00000000
