10
Lattice="16.28999089631971 0.0 0.0 0.0 16.28999089631971 0.0 0.0 0.0 34.397273925272025" Properties=species:S:1:pos:R:3:initial_magmoms:R:1 pbc="T T T"
Si      -1.07553096      -1.13672923       1.84613712       0.00000000
Si       2.39537934      -0.34847568      -0.33413531       0.00000000
Si      -0.36196380       2.40209082       0.40103804       0.00000000
Si      -0.81125829      -1.25209175      -2.04454071       0.00000000
Si      -3.08532600       0.21633120       2.00842355       0.00000000
Si      -2.52982071       2.38609404       1.23530999       0.00000000
Si      -1.53251433      -3.27113693       0.80162892       0.00000000
Si       0.56886309       1.76906142      -3.22402389       0.00000000
Si       2.39611239       0.10155186      -2.85401221       0.00000000
Si      -0.69289515       3.17638710      -1.82525796       0.00000000
