10
Lattice="16.28999089631971 0.0 0.0 0.0 16.28999089631971 0.0 0.0 0.0 34.397273925272025" Properties=species:S:1:pos:R:3:initial_magmoms:R:1 pbc="T T T"
Si      -1.35837423      -1.35350352       1.36882308       0.00000000
Si       1.35117405       1.36446669       1.37016458       0.00000000
Si       1.37779191      -1.34552142      -1.38071767       0.00000000
Si      -1.30091940       1.34752509      -1.46805927       0.00000000
Si      -2.70563868       2.71839375      -0.00960372       0.00000000
Si       2.72699487       2.70242955       0.01103809       0.00000000
Si      -2.70067023      -2.72981304      -0.00977571       0.00000000
Si      -0.00185706      -2.70974376       2.72982078       0.00000000
Si       2.71213839       0.00491958       2.72923603       0.00000000
Si       2.72624553      -2.71836117       0.00026830       0.00000000
