10
Lattice="16.28999089631971 0.0 0.0 0.0 16.28999089631971 0.0 0.0 0.0 34.397273925272025" Properties=species:S:1:pos:R:3:initial_magmoms:R:1 pbc="T T T"
Si      -1.41366249       1.29160152       1.35401505       0.00000000
Si      -1.36177884      -1.34711784      -1.35883067       0.00000000
Si       1.35514881       1.36466217      -1.36024096       0.00000000
Si       1.47302325      -1.27837404       1.35587250       0.00000000
Si       0.53644599       1.94523777       2.48059519       0.00000000
Si       2.45021148       0.39472299       2.73637346       0.00000000
Si      -2.71322982      -0.20722509       2.67741650       0.00000000
Si      -0.00322542      -2.70523143      -2.71583828       0.00000000
Si       2.71078632       0.01013238      -2.71422161       0.00000000
Si      -2.72349252      -2.70576900       0.00959684       0.00000000
