10
Lattice="16.28999089631971 0.0 0.0 0.0 16.28999089631971 0.0 0.0 0.0 34.397273925272025" Properties=species:S:1:pos:R:3:initial_magmoms:R:1 pbc="T T T"
Si      -0.20556351      -1.10218140      -1.97873869       0.00000000
Si      -2.08311633      -0.56980791       0.78374232       0.00000000
Si       1.14782598      -1.13135679       1.69540818       0.00000000
Si       0.68685156       2.26468467      -0.11667562       0.00000000
Si      -2.02108401       0.67038237       2.72337129       0.00000000
Si       3.29590683      -0.71131914       0.86794690       0.00000000
Si      -0.02816541      -0.21038535       3.55712728       0.00000000
Si      -0.76106880      -3.27194424      -1.20562512       0.00000000
Si       1.96229340      -1.08618462      -2.81301063       0.00000000
Si       3.35935638       0.18766080      -1.31060566       0.00000000
