10
Lattice="16.28999089631971 0.0 0.0 0.0 16.28999089631971 0.0 0.0 0.0 34.397273925272025" Properties=species:S:1:pos:R:3:initial_magmoms:R:1 pbc="T T T"
Si      -0.96876630       1.18835550       1.75071903       0.00000000
Si       2.24388234      -0.52556427       0.33750624       0.00000000
Si      -1.26371304      -1.94044851      -0.30266178       0.00000000
Si      -0.45783045       1.44016632      -1.82770017       0.00000000
Si      -2.87803575       1.27430154      -1.43323201       0.00000000
Si      -0.08772165      -2.86141995      -2.16438088       0.00000000
Si       2.03048334      -2.59509474       1.42783164       0.00000000
Si      -3.25663164      -1.05968079      -1.13641777       0.00000000
Si      -2.75055021       2.28297834       0.68842743       0.00000000
Si       0.66134142       2.78572032       2.28556254       0.00000000
