10
Lattice="16.28999089631971 0.0 0.0 0.0 16.28999089631971 0.0 0.0 0.0 34.397273925272025" Properties=species:S:1:pos:R:3:initial_magmoms:R:1 pbc="T T T"
Si      -2.24388234       0.52556427      -0.33750624       0.00000000
Si      -0.21339900      -2.06953047       1.09032540       0.00000000
Si       1.21459869      -0.62436312      -1.93508852       0.00000000
Si       1.46600226       1.24874253       1.39711486       0.00000000
Si       2.06896032      -2.52082863       1.19031833       0.00000000
Si       2.48034798      -2.46669696      -1.11044781       0.00000000
Si       3.15475398      -0.36911511       1.91379660       0.00000000
Si      -3.50759538      -1.41488424      -0.64016802       0.00000000
Si       2.06511588       3.22532226       0.29371849       0.00000000
Si      -0.18352314      -1.91581803      -3.32934840       0.00000000
