10
Lattice="16.28999089631971 0.0 0.0 0.0 16.28999089631971 0.0 0.0 0.0 34.397273925272025" Properties=species:S:1:pos:R:3:initial_magmoms:R:1 pbc="T T T"
Si      -2.00101473       0.08190612      -1.27472929       0.00000000
Si       1.49190336       1.41752322      -1.20961521       0.00000000
Si       0.25572042       0.57935385       2.42156944       0.00000000
Si      -0.79524522      -2.22267276      -0.91985241       0.00000000
Si       2.09362338      -0.79866612       2.84317706       0.00000000
Si       0.44636229      -3.64449654       0.54612582       0.00000000
Si      -3.46545478       1.40638086      -0.02407811       0.00000000
Si       2.08028187      -0.06170652      -3.13335262       0.00000000
Si       0.53722791      -2.73895173       2.69489033       0.00000000
Si       3.35888397       1.96020828       0.21598060       0.00000000
