10
Lattice="16.28999089631971 0.0 0.0 0.0 16.28999089631971 0.0 0.0 0.0 34.397273925272025" Properties=species:S:1:pos:R:3:initial_magmoms:R:1 pbc="T T T"
Si      -1.83790296       1.37801997      -0.42160762       0.00000000
Si       0.96972741       0.27241767       2.13885809       0.00000000
Si       1.80283059       0.66901401      -1.53267459       0.00000000
Si      -1.55639547      -1.94028561      -0.14828673       0.00000000
Si      -2.09362338       0.79866612      -2.84317706       0.00000000
Si       2.26383759      -1.38214134      -2.55950258       0.00000000
Si      -3.27463209       0.96824502       1.46081864       0.00000000
Si       1.33776738       2.60291394       2.57845549       0.00000000
Si      -1.38380292       3.66376761       0.13208561       0.00000000
Si      -1.09856502      -3.38045193       1.67941344       0.00000000
