10
Lattice="16.28999089631971 0.0 0.0 0.0 16.28999089631971 0.0 0.0 0.0 34.397273925272025" Properties=species:S:1:pos:R:3:initial_magmoms:R:1 pbc="T T T"
Si      -1.54948851      -0.39031003       1.73809522       0.00000000
Si       0.15835509      -1.37128894      -1.94798751       0.00000000
Si       1.96257033       0.58593501       1.22719223       0.00000000
Si      -0.13685229       2.14438302      -1.04574651       0.00000000
Si      -0.93460617       1.76127480       2.71676701       0.00000000
Si       1.26620541       2.69770545       2.15698546       0.00000000
Si       2.52014445      -1.61826733       2.25587768       0.00000000
Si      -3.68433278      -0.27840099       0.67174474       0.00000000
Si       2.37726486      -2.18566907      -1.93784030       0.00000000
Si      -0.60996276       0.03132567      -3.72416053       0.00000000
