10
Lattice="16.28999089631971 0.0 0.0 0.0 16.28999089631971 0.0 0.0 0.0 34.397273925272025" Properties=species:S:1:pos:R:3:initial_magmoms:R:1 pbc="T T T"
Si      -1.34325711      -1.35927018       1.36666981       0.00000000
Si       1.30253211      -1.33058349      -1.44885182       0.00000000
Si       1.36741518       1.35923760       1.36673861       0.00000000
Si      -1.27853694       1.37135736      -1.48021528       0.00000000
Si       0.51064263       2.22265647      -2.89802496       0.00000000
Si       2.52348390       0.26826372      -2.70624510       0.00000000
Si      -0.26549442      -2.51649549      -2.85024712       0.00000000
Si      -2.69879688      -2.72139111      -0.01526552       0.00000000
Si      -2.70053991       2.72218932      -0.02168061       0.00000000
Si      -2.70645318       0.00006516       2.72484693       0.00000000
