10
Lattice="16.28999089631971 0.0 0.0 0.0 16.28999089631971 0.0 0.0 0.0 34.397273925272025" Properties=species:S:1:pos:R:3:initial_magmoms:R:1 pbc="T T T"
Si      -1.30253211       1.33058349       1.44885182       0.00000000
Si       1.22095179       1.59884721      -1.25739328       0.00000000
Si      -1.56802653      -1.18591200      -1.40139529       0.00000000
Si       1.42039026      -1.38520386       1.43457695       0.00000000
Si      -2.58106905       2.70194085      -0.03136345       0.00000000
Si      -2.64578922      -0.02868669       2.81552164       0.00000000
Si      -2.68022628      -2.81121417      -0.03572503       0.00000000
Si       2.77816176       2.71847520       0.05998200       0.00000000
Si       0.06488307       2.68982109       2.81559043       0.00000000
Si      -0.79188948       3.55323996      -1.44917313       0.00000000
