10
Lattice="16.28999089631971 0.0 0.0 0.0 16.28999089631971 0.0 0.0 0.0 34.397273925272025" Properties=species:S:1:pos:R:3:initial_magmoms:R:1 pbc="T T T"
Si       0.71905689       2.22638688       0.72244635       0.00000000
Si       1.66703715      -1.04806602       1.50202660       0.00000000
Si      -2.26108458      -0.50199264       0.96136995       0.00000000
Si       0.56247741       1.03307922      -2.28167565       0.00000000
Si       1.07865864       0.43116372       3.42576401       0.00000000
Si       1.86523758       2.83165812      -1.37166086       0.00000000
Si       3.15208242       1.92222000       0.42418742       0.00000000
Si      -3.19161825       1.69227036       1.11440350       0.00000000
Si       3.73304898      -0.33655140       0.55448437       0.00000000
Si       0.13800888       2.63503782       2.88576091       0.00000000
