10
Lattice="16.28999089631971 0.0 0.0 0.0 16.28999089631971 0.0 0.0 0.0 34.397273925272025" Properties=species:S:1:pos:R:3:initial_magmoms:R:1 pbc="T T T"
Si      -1.78375500      -1.23782823       0.82759887       0.00000000
Si      -0.00260640       1.59993864       1.70022380       0.00000000
Si       2.17447065      -0.90337824       0.08626841       0.00000000
Si      -0.54709965       0.15747543      -2.36010147       0.00000000
Si       3.15623637       0.60797538      -1.46449915       0.00000000
Si      -3.41829360       0.44766549       1.14367560       0.00000000
Si      -2.43792882      -2.53804716      -1.03136844       0.00000000
Si      -2.22151617       2.41431876       1.69007660       0.00000000
Si       1.80643068      -3.23387451      -0.35332900       0.00000000
Si      -0.93828771      -2.49160437       2.62021381       0.00000000
