10
Lattice="16.28999089631971 0.0 0.0 0.0 16.28999089631971 0.0 0.0 0.0 34.397273925272025" Properties=species:S:1:pos:R:3:initial_magmoms:R:1 pbc="T T T"
Si      -2.17447065       0.90337824      -0.08626841       0.00000000
Si       0.98176572       1.51135362      -1.55076756       0.00000000
Si      -0.36803997      -2.33049627      -0.43959741       0.00000000
Si       1.52230050      -0.11569158       1.88624436       0.00000000
Si      -2.17707705       2.50331688       1.61395539       0.00000000
Si       3.05983215      -1.72812465       1.14591142       0.00000000
Si       3.03885063       0.40176027      -2.16651351       0.00000000
Si       0.59890185      -1.72149462       3.31046429       0.00000000
Si       1.87266582      -3.28360788      -0.26781732       0.00000000
Si      -2.72157030       1.06085367      -2.44636989       0.00000000
