10
Lattice="16.28999089631971 0.0 0.0 0.0 16.28999089631971 0.0 0.0 0.0 34.397273925272025" Properties=species:S:1:pos:R:3:initial_magmoms:R:1 pbc="T T T"
Si      -1.33809318      -1.35629082      -1.38373431       0.00000000
Si       1.37121075       1.36439990      -1.37750840       0.00000000
Si       1.41718113      -1.17551735       1.53229622       0.00000000
Si      -1.40820534       1.36464425       1.46652859       0.00000000
Si       2.13969150       0.85509305       2.63789401       0.00000000
Si       0.41976072       2.52292841       2.50821622       0.00000000
Si      -2.69905752      -2.68624611      -0.00687946       0.00000000
Si      -2.68076385       2.71897856      -0.01960646       0.00000000
Si      -2.69677692       0.00423540      -2.73888447       0.00000000
Si       2.73719241      -2.70743940       0.01843695       0.00000000
