10
Lattice="16.28999089631971 0.0 0.0 0.0 16.28999089631971 0.0 0.0 0.0 34.397273925272025" Properties=species:S:1:pos:R:3:initial_magmoms:R:1 pbc="T T T"
Si       2.13644979      -0.83510685       0.62008000       0.00000000
Si      -1.39862682      -0.31498344       1.93261192       0.00000000
Si       0.01571985       2.40409449      -0.30245540       0.00000000
Si      -0.89977815      -1.27423638      -2.05768047       0.00000000
Si      -2.26005831       2.75017554       0.17989784       0.00000000
Si       3.56822676       1.05358833       0.28112908       0.00000000
Si      -2.32350786       1.85119560       2.35845040       0.00000000
Si      -3.29515749      -0.92576070      -1.72354517       0.00000000
Si       1.90342134      -1.68910358       2.91059575       0.00000000
Si      -0.06981894       2.44907118      -3.00635782       0.00000000
