10
Lattice="16.28999089631971 0.0 0.0 0.0 16.28999089631971 0.0 0.0 0.0 34.397273925272025" Properties=species:S:1:pos:R:3:initial_magmoms:R:1 pbc="T T T"
Si      -1.25776719      -1.41537850       1.38336423       0.00000000
Si       1.48923180       1.25294046       1.31819856       0.00000000
Si       1.40229207      -1.49537869      -1.20920244       0.00000000
Si      -0.81197505       1.79032150      -1.45820445       0.00000000
Si      -2.60011206       2.58700024      -0.04805302       0.00000000
Si       2.66463675       2.64383605      -0.32969805       0.00000000
Si      -2.81497716      -2.53500649       0.06598896       0.00000000
Si      -2.60491761      -0.08961685       2.77836022       0.00000000
Si       0.11596851       2.61883090       2.76797567       0.00000000
Si       0.10275732      -2.78880469       2.77466251       0.00000000
