10
Lattice="16.28999089631971 0.0 0.0 0.0 16.28999089631971 0.0 0.0 0.0 34.397273925272025" Properties=species:S:1:pos:R:3:initial_magmoms:R:1 pbc="T T T"
Si      -1.04298354      -0.18476118      -2.13442083       0.00000000
Si      -1.78813701       0.79667874       1.41015143       0.00000000
Si       1.68940332       1.71328446      -0.24212255       0.00000000
Si       0.81197505      -1.79032150       1.45820445       0.00000000
Si       0.86571576       0.02181231      -3.45599923       0.00000000
Si      -1.51451388      -2.49874658      -2.05654536       0.00000000
Si      -0.42051006       2.20134915       2.84519416       0.00000000
Si       2.30120685      -0.53738104       2.77640301       0.00000000
Si       0.82863972       3.42406026       1.19406763       0.00000000
Si       3.47661180       0.85351455       1.12850639       0.00000000
