10
Lattice="16.28999089631971 0.0 0.0 0.0 16.28999089631971 0.0 0.0 0.0 34.397273925272025" Properties=species:S:1:pos:R:3:initial_magmoms:R:1 pbc="T T T"
Si       1.34845362      -1.37283975       1.38098597       0.00000000
Si      -1.37779191       1.34552142       1.38071767       0.00000000
Si       1.24914978       1.22271111      -1.65112652       0.00000000
Si      -1.36762695      -1.40467041      -1.43504273       0.00000000
Si       0.42051006      -2.20134915      -2.84519416       0.00000000
Si       2.62702314       2.68043805      -0.12415359       0.00000000
Si       2.10991338      -0.48806469      -3.08731670       0.00000000
Si      -2.67871131       2.69304651      -0.08734161       0.00000000
Si       2.69283474      -0.00943191       2.74954075       0.00000000
Si      -0.02661786       2.70998811       2.75088224       0.00000000
