10
Lattice="16.28999089631971 0.0 0.0 0.0 16.28999089631971 0.0 0.0 0.0 34.397273925272025" Properties=species:S:1:pos:R:3:initial_magmoms:R:1 pbc="T T T"
Si       1.04441706      -2.06835759       0.37534326       0.00000000
Si      -2.25235314       0.09909207       0.65385815       0.00000000
Si       0.79291575       1.31013954       1.79639863       0.00000000
Si       0.19230345       0.49405941      -2.31060377       0.00000000
Si       3.16811178       0.97350669      -0.09737874       0.00000000
Si      -1.30108230       0.70242480       2.99359642       0.00000000
Si       1.89965835       2.24052660      -1.63094765       0.00000000
Si       3.15786537      -1.36919079      -0.36457691       0.00000000
Si      -0.89349021      -1.65765411      -3.03408204       0.00000000
Si      -2.79679752       2.34466857       0.88727818       0.00000000
