10
Lattice="16.28999089631971 0.0 0.0 0.0 16.28999089631971 0.0 0.0 0.0 34.397273925272025" Properties=species:S:1:pos:R:3:initial_magmoms:R:1 pbc="T T T"
Si       1.35705474      -1.35700587      -1.35810833       0.00000000
Si      -1.35874890      -1.35624024       1.35772996       0.00000000
Si      -1.35791811       1.35769005      -1.35783315       0.00000000
Si       1.35728280       1.35930276       1.35786754       0.00000000
Si      -2.71438641      -0.00171045       2.71171061       0.00000000
Si       2.71479366      -2.71451673      -0.00048156       0.00000000
Si       2.71467963       0.00179190      -2.71508154       0.00000000
Si       0.00013032      -2.71446786      -2.71539112       0.00000000
Si      -2.71572219       0.00074934      -2.71449679       0.00000000
Si       0.00008145       2.71484253      -2.71556310       0.00000000
