10
Lattice="16.28999089631971 0.0 0.0 0.0 16.28999089631971 0.0 0.0 0.0 34.397273925272025" Properties=species:S:1:pos:R:3:initial_magmoms:R:1 pbc="T T T"
Si      -1.35726651       1.35687555      -1.35752357       0.00000000
Si       1.35734796      -1.35806472      -1.35738598       0.00000000
Si       1.36032903       1.35627282       1.35714520       0.00000000
Si      -1.35622395      -1.35972630       1.35886507       0.00000000
Si      -2.71404432       0.00000000      -2.71408402       0.00000000
Si      -0.00045612      -2.71500543      -2.71404962       0.00000000
Si       0.00087966      -2.71746522       2.71215777       0.00000000
Si      -2.71529865       2.71479366       0.00079114       0.00000000
Si       2.71515204       2.71498914      -0.00041277       0.00000000
Si       0.00096111       2.71572219      -2.71473757       0.00000000
