10
Lattice="16.28999089631971 0.0 0.0 0.0 16.28999089631971 0.0 0.0 0.0 34.397273925272025" Properties=species:S:1:pos:R:3:initial_magmoms:R:1 pbc="T T T"
Si       1.35563751      -1.35452979      -1.35398065       0.00000000
Si      -1.35710361       1.35773892      -1.35329270       0.00000000
Si       1.37002158       1.35316143       1.35453101       0.00000000
Si      -1.35514881      -1.36466217       1.36024096       0.00000000
Si      -0.04623102       2.57740380       2.71896843       0.00000000
Si       0.11787444      -2.64303621       2.71611346       0.00000000
Si      -0.00122175      -2.71327869      -2.71239855       0.00000000
Si       2.71438641       0.00171045      -2.71171061       0.00000000
Si      -2.71692765      -2.71178001       0.00141029       0.00000000
Si      -2.71583622       0.00100998      -2.71288011       0.00000000
