10
Lattice="16.28999089631971 0.0 0.0 0.0 16.28999089631971 0.0 0.0 0.0 34.397273925272025" Properties=species:S:1:pos:R:3:initial_magmoms:R:1 pbc="T T T"
Si      -1.34400645      -1.36168110       1.34624126       0.00000000
Si       1.35764118      -1.35382932      -1.36213281       0.00000000
Si      -1.35457866       1.35889551      -1.36330232       0.00000000
Si       1.37647242       1.36451556       1.37217682       0.00000000
Si       2.71350675      -2.71357191      -0.00257980       0.00000000
Si      -2.71402803      -2.71484253      -0.00828975       0.00000000
Si       2.71549413       2.71565703      -0.00340533       0.00000000
Si       0.00035838      -2.71313208      -2.72000035       0.00000000
Si      -2.71629234       2.71692765      -0.00323335       0.00000000
Si       0.06331923      -2.65478130       2.77785660       0.00000000
