10
Lattice="16.28999089631971 0.0 0.0 0.0 16.28999089631971 0.0 0.0 0.0 34.397273925272025" Properties=species:S:1:pos:R:3:initial_magmoms:R:1 pbc="T T T"
Si       0.32086413      -2.30751108       0.49831359       0.00000000
Si      -2.01230370       1.20409164       0.42136684       0.00000000
Si       0.92849742       0.75137625      -2.08203376       0.00000000
Si       1.44492300       0.61879194       1.84025518       0.00000000
Si       2.20151205       2.45604330       0.22881079       0.00000000
Si      -3.26884914      -1.27298205      -0.41080687       0.00000000
Si       1.42760673      -1.37712402      -2.92903270       0.00000000
Si      -0.23024286       1.49195223       3.32544414       0.00000000
Si      -2.64315024       2.03295942      -1.65048532       0.00000000
Si      -1.77313392      -2.91522582       1.69551137       0.00000000
