10
Lattice="16.28999089631971 0.0 0.0 0.0 16.28999089631971 0.0 0.0 0.0 34.397273925272025" Properties=species:S:1:pos:R:3:initial_magmoms:R:1 pbc="T T T"
Si       1.33383043       1.35552674      -1.36410377       0.00000000
Si      -1.35759231       1.35380000       1.35487498       0.00000000
Si       1.35860229      -1.35974652       1.35480619       0.00000000
Si      -1.35843939      -1.35558255      -1.37310555       0.00000000
Si       0.08724924      -2.61888207      -2.77201938       0.00000000
Si       2.62585745       0.01682594      -2.78320194       0.00000000
Si      -2.71350675       2.71025201      -0.00588194       0.00000000
Si       0.00004887       2.71204391       2.71208898       0.00000000
Si       2.71436753      -0.00222359       2.71232976       0.00000000
Si      -2.71508688      -0.00210467       2.71205458       0.00000000
