10
Lattice="16.28999089631971 0.0 0.0 0.0 16.28999089631971 0.0 0.0 0.0 34.397273925272025" Properties=species:S:1:pos:R:3:initial_magmoms:R:1 pbc="T T T"
Si       1.35615879       1.35839052       1.35473739       0.00000000
Si       1.35624024      -1.35716877      -1.35659484       0.00000000
Si      -1.35681039      -1.35575154       1.35845230       0.00000000
Si      -1.35812988       1.35757602      -1.35700761       0.00000000
Si       0.00645084       2.70620883       2.71391203       0.00000000
Si       2.71300176       0.00120546       2.71432480       0.00000000
Si      -0.00125433      -2.71445157      -2.71318969       0.00000000
Si       2.71326240       0.00073305      -2.71466877       0.00000000
Si       2.71409319       2.71399545       0.00003440       0.00000000
Si      -2.71527797      -0.00024435      -2.71360246       0.00000000
