10
Lattice="16.28999089631971 0.0 0.0 0.0 16.28999089631971 0.0 0.0 0.0 34.397273925272025" Properties=species:S:1:pos:R:3:initial_magmoms:R:1 pbc="T T T"
Si      -1.35714809      -1.35782037      -1.35659484       0.00000000
Si       1.35812988      -1.35757602       1.35700761       0.00000000
Si      -1.35831809       1.35738054       1.35793634       0.00000000
Si       1.35980775       1.35840681      -1.35735158       0.00000000
Si       2.71428867       0.00081450       2.71174500       0.00000000
Si       2.71262709       0.00211770      -2.71422161       0.00000000
Si       0.00131949      -2.71332756       2.71545991       0.00000000
Si       2.71437012      -2.71474479       0.00041277       0.00000000
Si      -2.71361168      -0.00047241       2.71556310       0.00000000
Si       2.71477737       2.71490769       0.00024078       0.00000000
