10
Lattice="16.28999089631971 0.0 0.0 0.0 16.28999089631971 0.0 0.0 0.0 34.397273925272025" Properties=species:S:1:pos:R:3:initial_magmoms:R:1 pbc="T T T"
Si       1.35267273       1.35146727      -1.37606371       0.00000000
Si      -1.35876519      -1.36840887      -1.37743960       0.00000000
Si      -1.29751479       1.41025788       1.40437268       0.00000000
Si       1.55942541      -1.10317509       1.46302007       0.00000000
Si       1.01486700       0.81151893       3.26922193       0.00000000
Si      -2.70484047       2.70335808      -0.02724266       0.00000000
Si       2.71423980      -2.70177795      -0.01922809       0.00000000
Si      -2.70099603      -2.72028339      -0.01575396       0.00000000
Si       2.71233387       2.71088406      -0.00608832       0.00000000
Si      -0.00319284       2.71120986      -2.73561672       0.00000000
