10
Lattice="16.28999089631971 0.0 0.0 0.0 16.28999089631971 0.0 0.0 0.0 34.397273925272025" Properties=species:S:1:pos:R:3:initial_magmoms:R:1 pbc="T T T"
Si      -2.26018863      -0.28390212       0.42525374       0.00000000
Si       0.53519166       0.95842215      -2.07525749       0.00000000
Si       0.29377386       1.25265213       1.97564293       0.00000000
Si       0.79605972      -2.23961436       0.24256971       0.00000000
Si       2.66820426       1.67943384      -1.29825704       0.00000000
Si       1.37182977      -0.49767579       3.11563802       0.00000000
Si       0.29685267      -2.52045396       2.49748426       0.00000000
Si      -0.69713055      -3.27332237      -1.24150150       0.00000000
Si      -2.77246026      -2.47950090      -0.30149227       0.00000000
Si      -2.67157629      -0.33803379       2.72601988       0.00000000
