10
Lattice="16.28999089631971 0.0 0.0 0.0 16.28999089631971 0.0 0.0 0.0 34.397273925272025" Properties=species:S:1:pos:R:3:initial_magmoms:R:1 pbc="T T T"
Si      -1.35075333      -1.34109054       1.36192642       0.00000000
Si      -1.35153525       1.35500220      -1.35497817       0.00000000
Si       1.37409682       1.34280099       1.35446221       0.00000000
Si       1.36339592      -1.35785295      -1.35508136       0.00000000
Si       2.54963372      -0.15615594       2.77513921       0.00000000
Si      -2.50556772       0.25751232       2.84417458       0.00000000
Si      -0.01191081      -2.63388123       2.75257459       0.00000000
Si      -2.71067511      -0.00192222      -2.71281132       0.00000000
Si      -2.71232040       2.71215468       0.00509080       0.00000000
Si       0.00375833       2.71285515      -2.71260493       0.00000000
