10
Lattice="16.28999089631971 0.0 0.0 0.0 16.28999089631971 0.0 0.0 0.0 34.397273925272025" Properties=species:S:1:pos:R:3:initial_magmoms:R:1 pbc="T T T"
Si       1.27420380      -0.24764058      -1.90533486       0.00000000
Si      -0.49910931       2.12850027       0.84699895       0.00000000
Si       1.26845343      -1.26701991       1.53356892       0.00000000
Si      -1.70735490      -1.74646719      -0.67965612       0.00000000
Si       0.17220159      -2.30749479      -2.15351133       0.00000000
Si      -1.89965835      -2.24052660       1.63094765       0.00000000
Si      -1.42760673       1.37712402       2.92903270       0.00000000
Si      -3.39610662      -0.12860955      -1.19633786       0.00000000
Si       1.58969223       3.21826869       0.96532563       0.00000000
Si      -1.10674260      -0.93038706       3.42734629       0.00000000
