10
Lattice="16.28999089631971 0.0 0.0 0.0 16.28999089631971 0.0 0.0 0.0 34.397273925272025" Properties=species:S:1:pos:R:3:initial_magmoms:R:1 pbc="T T T"
Si       1.56475780       0.86996745      -1.48627264       0.00000000
Si      -0.81003654       1.40312286       1.67122688       0.00000000
Si       0.97167474      -1.88467155       0.96240186       0.00000000
Si      -2.00407725      -0.16601139      -1.19183181       0.00000000
Si       0.69652035       0.04382010      -3.48183160       0.00000000
Si      -2.09455191       2.87412615       0.39254191       0.00000000
Si      -1.75881501      -0.28896831       3.10820820       0.00000000
Si       0.14208138      -1.67830983       3.22412708       0.00000000
Si       3.08494223      -2.07604647      -0.09964896       0.00000000
Si      -1.55774754       0.66135771      -3.31421359       0.00000000
