10
Lattice="16.28999089631971 0.0 0.0 0.0 16.28999089631971 0.0 0.0 0.0 34.397273925272025" Properties=species:S:1:pos:R:3:initial_magmoms:R:1 pbc="T T T"
Si      -1.33902171      -1.35114147       1.37558215       0.00000000
Si       1.35796698      -1.35544203      -1.36058493       0.00000000
Si      -1.35759231       1.36047564      -1.36096330       0.00000000
Si       1.36230012       1.36259334       1.39917869       0.00000000
Si      -2.63652021       0.07996761       2.74683024       0.00000000
Si       2.70910845      -2.70646947      -0.00313015       0.00000000
Si      -2.71298547       2.71374191      -0.00299256       0.00000000
Si       2.71270680       2.71406061       0.00144469       0.00000000
Si      -0.00027693      -2.71238274      -2.71669821       0.00000000
Si      -2.71549413      -2.71565703       0.00340533       0.00000000
