10
Lattice="16.28999089631971 0.0 0.0 0.0 16.28999089631971 0.0 0.0 0.0 34.397273925272025" Properties=species:S:1:pos:R:3:initial_magmoms:R:1 pbc="T T T"
Si       1.35040668       1.35146727      -1.39773401       0.00000000
Si      -1.36230012      -1.36259334      -1.39917869       0.00000000
Si       1.42570652      -1.40388849       1.49521594       0.00000000
Si      -1.32001128       1.53192204       1.51385927       0.00000000
Si      -2.55230091      -0.02379969       2.79918292       0.00000000
Si       2.52780142       0.19730448       2.82862700       0.00000000
Si      -2.70132183      -2.71373481      -0.02359654       0.00000000
Si       2.71303501       2.70806493      -0.01575396       0.00000000
Si       2.70612153      -2.73100221      -0.02497243       0.00000000
Si      -2.73719241       2.70743940      -0.01843695       0.00000000
