10
Lattice="16.28999089631971 0.0 0.0 0.0 16.28999089631971 0.0 0.0 0.0 34.397273925272025" Properties=species:S:1:pos:R:3:initial_magmoms:R:1 pbc="T T T"
Si       2.17758923      -0.93395457      -0.03040721       0.00000000
Si       0.32430671       2.15509274       0.95985647       0.00000000
Si      -0.89415810       0.37680922      -2.17817419       0.00000000
Si      -1.45699389      -1.24506099       1.45118740       0.00000000
Si       1.30574680      -3.02906034      -0.53040626       0.00000000
Si       0.14053383       2.45489390      -2.57838670       0.00000000
Si      -0.63902412      -0.55065087       3.50154125       0.00000000
Si      -0.58748256       1.78688987       3.11133836       0.00000000
Si      -0.56518155      -3.12497586      -1.96566771       0.00000000
Si       2.98791899      -0.52079130      -2.22832544       0.00000000
