10
Lattice="16.28999089631971 0.0 0.0 0.0 16.28999089631971 0.0 0.0 0.0 34.397273925272025" Properties=species:S:1:pos:R:3:initial_magmoms:R:1 pbc="T T T"
Si      -1.35576524      -1.35752293      -1.35752357       0.00000000
Si      -1.35704583       1.35762000       1.35755797       0.00000000
Si       1.35792788       1.35766887      -1.35680123       0.00000000
Si       1.35919850      -1.35857370       1.35721400       0.00000000
Si      -2.71436753       0.00222359      -2.71232976       0.00000000
Si      -2.71324352      -0.00005050       2.71494395       0.00000000
Si      -2.71431866       2.71426749      -0.00024078       0.00000000
Si      -2.71407431      -2.71505008      -0.00003440       0.00000000
Si       2.71558535       0.00047730       2.71394643       0.00000000
Si      -0.00039910      -2.71509895       2.71470317       0.00000000
