10
Lattice="16.28999089631971 0.0 0.0 0.0 16.28999089631971 0.0 0.0 0.0 34.397273925272025" Properties=species:S:1:pos:R:3:initial_magmoms:R:1 pbc="T T T"
Si      -0.47779384       2.28970611       0.11327029       0.00000000
Si      -2.23163293      -0.82764603       0.20287523       0.00000000
Si       0.39750858      -0.21450672      -2.35779686       0.00000000
Si       1.78314250      -0.83883726       1.37379349       0.00000000
Si      -1.61324824       0.98611515      -3.15970095       0.00000000
Si      -1.97618944      -3.14206407       0.31057316       0.00000000
Si      -3.30724534       0.02215440      -1.74267006       0.00000000
Si       0.39044361       3.11585346       2.10882925       0.00000000
Si       1.40454661      -3.17281959       1.67060773       0.00000000
Si       0.20066511       3.47236011      -1.73964310       0.00000000
