10
Lattice="10.86 0.0 0.0 0.0 10.86 0.0 0.0 0.0 10.86" Properties=species:S:1:pos:R:3:initial_magmoms:R:1 pbc="T T T"
Si       1.06558320      -1.29623874      -1.36512372       0.00000000
Si      -1.64941680      -1.29623874       1.34987628       0.00000000
Si      -1.64941680       1.41876126      -1.36512372       0.00000000
Si       1.05070500       2.31500448       0.83581818       0.00000000
Si       2.04154968       0.32934036       2.43536586       0.00000000
Si       2.42308320      -2.65373874      -0.00762372       0.00000000
Si       2.45388216      -0.02410920      -2.69477868       0.00000000
Si      -0.30195144       2.87447910      -2.40639138       0.00000000
Si      -0.29191680      -2.65373874       2.70737628       0.00000000
Si      -0.29191680      -2.65373874      -2.72262372       0.00000000
