10
Lattice="10.86 0.0 0.0 0.0 10.86 0.0 0.0 0.0 10.86" Properties=species:S:1:pos:R:3:initial_magmoms:R:1 pbc="T T T"
Si      -1.24691262       0.65138280       2.00648274       0.00000000
Si      -1.05070500      -2.31500448      -0.83581818       0.00000000
Si       0.28091562       1.82053782      -1.98998640       0.00000000
Si       0.99084468      -1.98566412       1.59954768       0.00000000
Si      -2.70012180       1.81875678       0.51405810       0.00000000
Si      -1.35265644       0.55947462      -3.24220956       0.00000000
Si      -2.70012180      -0.89624322      -2.20094190       0.00000000
Si      -1.54749570       3.14585964      -0.87438204       0.00000000
Si       0.01487820       1.81875678       3.22905810       0.00000000
Si       1.46823942       3.35709750       1.83567666       0.00000000
