10
Lattice="16.2900001489832 0.0 0.0 0.0 16.2900001489832 0.0 0.0 0.0 29.34461067663915" Properties=species:S:1:pos:R:3:initial_magmoms:R:1 pbc="T T T"
Si      -0.78110388       1.73985509      -1.45863256       0.00000000
Si       1.03967179       1.48066164       1.58457963       0.00000000
Si      -1.62934048      -1.11307942       1.39312659       0.00000000
Si       1.73601065      -1.45212319      -1.15556142       0.00000000
Si       1.61592077       2.23342418      -1.89924189       0.00000000
Si       2.75591127       2.34323507       0.24263327       0.00000000
Si      -0.36940670      -2.34971849       2.99304758       0.00000000
Si       2.66116863      -2.77241142       0.52669761       0.00000000
Si       2.30041029       0.25679556       3.13840611       0.00000000
Si      -2.77058531      -2.85107583       0.20502287       0.00000000
