10
Lattice="16.2900001489832 0.0 0.0 0.0 16.2900001489832 0.0 0.0 0.0 29.34461067663915" Properties=species:S:1:pos:R:3:initial_magmoms:R:1 pbc="T T T"
Si       2.00748188      -0.95461030      -0.86003185       0.00000000
Si      -1.39808926       0.65834407      -1.81807470       0.00000000
Si       0.77121748       1.75835891       1.44489929       0.00000000
Si      -1.67707181      -1.76171465       0.52033864       0.00000000
H        1.59231493       2.42439185      -1.53486986       0.00000000
Si      -3.21975111      -0.53916642      -0.95302492       0.00000000
Si      -0.15277902      -0.54439551      -3.45110228       0.00000000
Si       1.69637546       0.43807068       3.12715832       0.00000000
Si       1.08566335      -2.32580477      -2.55113242       0.00000000
Si      -1.99212041      -1.37101528       2.85632811       0.00000000
