10
Lattice="16.2900001489832 0.0 0.0 0.0 16.2900001489832 0.0 0.0 0.0 29.34461067663915" Properties=species:S:1:pos:R:3:initial_magmoms:R:1 pbc="T T T"
Si       2.12151188       0.58264606       0.71680080       0.00000000
Si       0.01252701      -0.74656419      -2.21874601       0.00000000
Si      -1.45810162       1.84671750       0.07711764       0.00000000
Si      -1.37585341      -1.19619100       1.57419164       0.00000000
H       -1.32835177      -2.69873012       1.20509513       0.00000000
Si      -3.08695503      -1.22806564      -0.32314285       0.00000000
Si      -1.16664094       2.09530290       2.37271719       0.00000000
Si       1.30764718       1.93111599       2.49925115       0.00000000
Si      -1.88753861      -2.11118239      -2.11603988       0.00000000
Si       2.66406662       2.13623967      -1.07236945       0.00000000
