10
Lattice="16.2900001489832 0.0 0.0 0.0 16.2900001489832 0.0 0.0 0.0 29.34461067663915" Properties=species:S:1:pos:R:3:initial_magmoms:R:1 pbc="T T T"
Si       0.54623628       1.00762122       2.11403241       0.00000000
Si       1.69295456      -1.01569780      -1.39894562       0.00000000
Si      -2.13250763      -1.07885413       0.73493577       0.00000000
Si      -1.35891181       1.08971793      -1.87573686       0.00000000
H       -1.31141017      -0.41282118      -2.24483337       0.00000000
Si      -2.25259751       2.60669324      -0.00874469       0.00000000
Si      -1.20734965      -2.39914235       2.41719481       0.00000000
Si      -1.11260701       2.71650413       2.13313047       0.00000000
Si      -0.19303650      -0.65606347       3.63627851       0.00000000
Si       0.32092929      -2.28060002      -2.95808348       0.00000000
