10
Lattice="16.2900001489832 0.0 0.0 0.0 16.2900001489832 0.0 0.0 0.0 29.34461067663915" Properties=species:S:1:pos:R:3:initial_magmoms:R:1 pbc="T T T"
Si      -1.29837817      -1.45072225      -1.30741362       0.00000000
Si       1.24554970      -1.41405346       1.39790683       0.00000000
Si       1.60458130       0.80984107      -1.54368792       0.00000000
Si      -1.38499210       1.51252651       1.20836999       0.00000000
H       -2.11610360      -0.46996650      -2.14921396       0.00000000
Si       0.10060704       0.82062505      -3.57888339       0.00000000
Si       2.56803707      -2.69465924      -0.14150558       0.00000000
Si      -2.78910867       0.06094089       2.47995707       0.00000000
Si       2.61174314       0.05217687       2.66688224       0.00000000
Si       2.55337607       2.71933859      -0.32651748       0.00000000
