10
Lattice="16.2900001489832 0.0 0.0 0.0 16.2900001489832 0.0 0.0 0.0 29.34461067663915" Properties=species:S:1:pos:R:3:initial_magmoms:R:1 pbc="T T T"
Si       1.26035731       1.29715642       1.46174309       0.00000000
Si      -1.15549858       1.35995437      -1.54270487       0.00000000
Si      -1.70095295      -0.84180205       1.40807180       0.00000000
Si       1.41082804      -1.43666398      -1.26528092       0.00000000
Si      -3.28795734       0.95729815       1.10450180       0.00000000
Si      -2.40986117       2.70606224      -0.14378859       0.00000000
Si       2.66546756       2.56372022      -0.04463315       0.00000000
Si       2.56140704      -0.42842700       2.69586004       0.00000000
Si      -2.70866864      -2.59398704       0.12844136       0.00000000
Si      -2.53109135      -0.04585635      -2.84707282       0.00000000
