10
Lattice="16.2900001489832 0.0 0.0 0.0 16.2900001489832 0.0 0.0 0.0 29.34461067663915" Properties=species:S:1:pos:R:3:initial_magmoms:R:1 pbc="T T T"
Si       1.28674711      -1.45604908       1.33400600       0.00000000
Si       1.30051216       1.92401192      -0.56726067       0.00000000
Si      -1.79066198       0.54086058       1.51893574       0.00000000
Si      -0.43878744      -1.36783873      -1.97503902       0.00000000
H       -1.75910825      -0.61761907       2.50004345       0.00000000
Si       2.56051109      -2.54892890      -0.35609685       0.00000000
Si      -0.13603779       3.01347084      -2.17921882       0.00000000
Si       2.93641914      -0.07654671       2.38715473       0.00000000
Si      -2.64503990      -2.20332026      -1.67067672       0.00000000
H       -3.12166902      -1.86546566       1.33453420       0.00000000
