10
Lattice="16.2900001489832 0.0 0.0 0.0 16.2900001489832 0.0 0.0 0.0 29.34461067663915" Properties=species:S:1:pos:R:3:initial_magmoms:R:1 pbc="T T T"
Si      -1.31170339      -1.42702030       1.29937936       0.00000000
Si      -1.39259953       1.35899326      -1.30774257       0.00000000
Si       1.37515294      -1.43496982      -1.26639602       0.00000000
Si       1.36637263       1.31097034       1.41925210       0.00000000
Si      -2.63407673       2.61780302       0.26700661       0.00000000
Si      -2.56606598      -0.08091243       2.69829564       0.00000000
Si       0.09591552       2.70023042      -2.60689892       0.00000000
Si       2.50926275      -0.22325445       2.79745108       0.00000000
Si       2.77544136       2.59401962       0.02937396       0.00000000
Si      -2.86518297      -0.04386897      -2.51716310       0.00000000
