10
Lattice="16.2900001489832 0.0 0.0 0.0 16.2900001489832 0.0 0.0 0.0 29.34461067663915" Properties=species:S:1:pos:R:3:initial_magmoms:R:1 pbc="T T T"
Si      -0.50383341      -0.83251675       2.06201645       0.00000000
Si       2.20625246       0.83548153      -0.30436230       0.00000000
Si      -1.54267605       1.78426001       0.39301237       0.00000000
Si      -0.61077727      -2.07130121      -1.10966645       0.00000000
H       -0.47662911       0.33785460       3.00521092       0.00000000
Si      -2.01737642       0.81523306      -2.72673057       0.00000000
Si      -1.06357411       2.89453755      -1.67270150       0.00000000
Si       1.37648872      -2.10207465       2.50837732       0.00000000
Si      -0.89085124      -1.22215726      -3.24290227       0.00000000
Si      -3.52756695       0.49503681       0.93694407       0.00000000
