10
Lattice="16.2900001489832 0.0 0.0 0.0 16.2900001489832 0.0 0.0 0.0 29.34461067663915" Properties=species:S:1:pos:R:3:initial_magmoms:R:1 pbc="T T T"
Si      -1.30440547       0.98248249       1.72748789       0.00000000
Si       1.43654995      -1.08945892       1.61195815       0.00000000
Si       1.33001335       1.85865644      -0.79297941       0.00000000
Si      -1.34195392      -1.51296634      -1.87711606       0.00000000
Si      -1.70797394       3.12730536       0.85900479       0.00000000
Si       0.13603779      -3.01347084       2.17921882       0.00000000
Si       0.30415059      -3.24374628      -1.81602058       0.00000000
Si       2.52969041      -2.52869672      -1.22968591       0.00000000
Si       0.17060517       2.75320551      -2.66880431       0.00000000
Si       2.33197868      -0.67748482      -2.97929963       0.00000000
