10
Lattice="16.2900001489832 0.0 0.0 0.0 16.2900001489832 0.0 0.0 0.0 29.34461067663915" Properties=species:S:1:pos:R:3:initial_magmoms:R:1 pbc="T T T"
Si      -0.40356846       2.14482287      -0.86848310       0.00000000
Si      -2.16989318      -0.83013841       0.50053102       0.00000000
Si       1.30440547      -0.98248249      -1.72748789       0.00000000
Si       1.18583056      -0.08938323       2.14512039       0.00000000
H       -2.46734858      -0.14234202       1.82021686       0.00000000
Si       2.74095543      -2.07194141      -0.11552973       0.00000000
Si      -2.04491630       3.00514665       0.56963758       0.00000000
Si       2.63441882       0.87617395      -2.52046730       0.00000000
Si       0.01612710      -1.66483802       3.42542575       0.00000000
Si       1.33887511       3.62740836      -0.26853253       0.00000000
