10
Lattice="16.2900001489832 0.0 0.0 0.0 16.2900001489832 0.0 0.0 0.0 29.34461067663915" Properties=species:S:1:pos:R:3:initial_magmoms:R:1 pbc="T T T"
H       -1.69956830      -1.24229170      -1.04889376       0.00000000
Si       0.92344753       1.97511365       0.94090560       0.00000000
Si       1.14508927      -2.10647621      -0.23091274       0.00000000
Si      -1.90677710      -0.29167245       1.45035738       0.00000000
Si      -0.56656621       0.92763406      -2.22564200       0.00000000
H       -2.03828627      -1.85134223      -0.69479235       0.00000000
Si       2.70402599       1.81367975      -0.71721163       0.00000000
Si      -2.26447292       2.30770658      -1.38515366       0.00000000
Si      -3.48164544       0.79648327       0.00293446       0.00000000
Si      -0.89244766       3.57260880       0.17398420       0.00000000
