10
Lattice="16.2900001489832 0.0 0.0 0.0 16.2900001489832 0.0 0.0 0.0 29.34461067663915" Properties=species:S:1:pos:R:3:initial_magmoms:R:1 pbc="T T T"
Si      -1.26672670      -1.33410214      -1.44444151       0.00000000
Si       1.41279913      -1.44031294       1.19183136       0.00000000
Si       1.21814992       1.21709107      -1.61627475       0.00000000
Si      -1.39215970       1.34731138       1.40551882       0.00000000
Si       2.61866639       0.02583594       2.62825006       0.00000000
Si       0.00373041      -2.72336222       2.58170950       0.00000000
Si       2.66768300       2.65615783      -0.28343959       0.00000000
Si       2.67716378      -2.70602966      -0.36384383       0.00000000
Si      -2.78088222      -0.01164735      -2.62521582       0.00000000
Si      -2.75524176      -2.67533930      -0.14528517       0.00000000
