10
Lattice="16.2900001489832 0.0 0.0 0.0 16.2900001489832 0.0 0.0 0.0 29.34461067663915" Properties=species:S:1:pos:R:3:initial_magmoms:R:1 pbc="T T T"
Si      -2.29146545       0.31791564      -0.26551004       0.00000000
Si       0.42468030       1.81327250       1.40572423       0.00000000
Si       0.01638774      -1.86551453       1.52289726       0.00000000
Si       1.69468130      -0.19262925      -1.70988112       0.00000000
Si       3.14090751      -1.22204323      -0.07230512       0.00000000
Si       1.69215635       0.71289928       3.12875173       0.00000000
Si      -3.06954102      -0.17241336       2.01424342       0.00000000
Si       1.92380015      -3.04205979       0.94565942       0.00000000
Si      -1.72605584      -3.34810002       0.92294670       0.00000000
Si       1.26460900       3.67280859       0.09974233       0.00000000
