10
Lattice="16.2900001489832 0.0 0.0 0.0 16.2900001489832 0.0 0.0 0.0 29.34461067663915" Properties=species:S:1:pos:R:3:initial_magmoms:R:1 pbc="T T T"
Si      -1.40115178       0.76378924       1.68573051       0.00000000
Si       0.99168634       2.02460267      -0.66084063       0.00000000
Si       1.52669881      -1.45158562       1.11283567       0.00000000
Si      -0.68408227      -0.55381114      -2.26669511       0.00000000
H        2.86855500       0.76663999       0.91396724       0.00000000
H        2.95207383       1.53634249       0.97946442       0.00000000
Si      -2.85755925       1.98223238       0.30277769       0.00000000
Si       2.16525053      -2.67369401      -0.81495853       0.00000000
Si       1.22333014      -1.73035640      -2.84393294       0.00000000
Si      -0.00379557      -2.98651089       1.95875276       0.00000000
