10
Lattice="16.2900001489832 0.0 0.0 0.0 16.2900001489832 0.0 0.0 0.0 29.34461067663915" Properties=species:S:1:pos:R:3:initial_magmoms:R:1 pbc="T T T"
Si       0.98173315       1.11452923      -1.83260028       0.00000000
Si      -1.75803311       1.40381194       0.76915159       0.00000000
Si      -1.17167455      -1.42470712      -1.55420796       0.00000000
Si       1.73037269      -0.39688956       1.75325245       0.00000000
Si       2.95202496       1.70957198      -0.81038077       0.00000000
Si      -0.48014775       2.88477984      -2.34742213       0.00000000
Si      -3.65809872       0.03919374       0.87185773       0.00000000
Si       3.80226522       0.18904545       0.72827455       0.00000000
Si      -2.42483168      -3.03595104      -0.45134946       0.00000000
Si       0.22947723      -2.18849636      -3.23993846       0.00000000
