10
Lattice="16.2900001489832 0.0 0.0 0.0 16.2900001489832 0.0 0.0 0.0 29.34461067663915" Properties=species:S:1:pos:R:3:initial_magmoms:R:1 pbc="T T T"
Si       1.51813027      -1.27203724       1.27176315       0.00000000
Si      -1.32248737       1.28060578       1.53941241       0.00000000
Si      -1.24822126      -1.60858864      -1.28510849       0.00000000
Si       0.87723280       1.83774008      -1.28742114       0.00000000
Si      -2.47588454      -0.04515588      -2.53447348       0.00000000
Si      -2.56803707       2.69465924       0.14150558       0.00000000
Si       0.03758103      -2.67111205       2.61474273       0.00000000
Si       2.64435572       2.78642082       0.07866703       0.00000000
Si      -0.96345577       3.50450031      -1.40218234       0.00000000
Si       2.72130968       0.06079428       2.81366985       0.00000000
