10
Lattice="16.2900001489832 0.0 0.0 0.0 16.2900001489832 0.0 0.0 0.0 29.34461067663915" Properties=species:S:1:pos:R:3:initial_magmoms:R:1 pbc="T T T"
Si      -0.85921606      -0.97906322      -1.95252290       0.00000000
Si       1.03693996      -1.61193021       1.41632057       0.00000000
Si      -1.67295044       1.07103493       1.44488461       0.00000000
Si       1.60436953       1.21195972      -1.43356346       0.00000000
H       -0.28030203      -2.38733210      -1.92778540       0.00000000
Si       2.44325567       2.67292838       0.17620852       0.00000000
Si       2.36810990      -0.27707824       2.85673600       0.00000000
Si      -0.46977102       2.40386645       2.98679131       0.00000000
Si       2.38311299      -3.07959195       0.09343324       0.00000000
Si      -3.19971441      -1.23832834      -1.88746590       0.00000000
