10
Lattice="16.2900001489832 0.0 0.0 0.0 16.2900001489832 0.0 0.0 0.0 29.34461067663915" Properties=species:S:1:pos:R:3:initial_magmoms:R:1 pbc="T T T"
Si      -1.05437026      -1.03568563       0.35489372       0.00000000
H        2.14018022       0.84602116      -0.88790923       0.00000000
Si       0.95851990       2.02147499       1.41250283       0.00000000
Si       2.10041633      -0.33451515      -1.85405119       0.00000000
Si      -0.21566331       2.82074385      -0.64308714       0.00000000
Si       0.44605278      -2.76946618       0.86463895       0.00000000
Si      -2.32813424       0.05719419       2.04499657       0.00000000
H        2.88258069      -0.53950852       1.08536912       0.00000000
Si       2.19294353      -2.35180035      -0.60326651       0.00000000
Si      -2.46822824      -1.61507206      -1.43242783       0.00000000
