10
Lattice="16.2900001489832 0.0 0.0 0.0 16.2900001489832 0.0 0.0 0.0 29.34461067663915" Properties=species:S:1:pos:R:3:initial_magmoms:R:1 pbc="T T T"
Si       2.22673225       0.66979594      -0.19587528       0.00000000
Si       0.08154285      -2.21537486      -0.98879600       0.00000000
Si      -0.04997935      -0.25139869       2.46048692       0.00000000
Si      -0.79700129       1.99734950      -1.32094765       0.00000000
H        2.25393655       1.84016729       0.74731920       0.00000000
Si      -3.21660388      -1.40676206      -1.01793520       0.00000000
Si      -2.01901194      -0.83321722      -3.02316983       0.00000000
H       -2.25396261       1.68818159       2.46767635       0.00000000
Si       1.32484454      -2.12877722       2.80179408       0.00000000
Si       2.73056566       1.50231268      -2.25789172       0.00000000
