10
Lattice="16.2900001489832 0.0 0.0 0.0 16.2900001489832 0.0 0.0 0.0 29.34461067663915" Properties=species:S:1:pos:R:3:initial_magmoms:R:1 pbc="T T T"
H       -0.57653569       1.09353142       0.87640614       0.00000000
Si      -0.97130755      -2.03090690       0.66650414       0.00000000
Si      -0.12370626       0.87043987      -2.18869713       0.00000000
Si       2.17665353      -0.21108582       0.94959160       0.00000000
H        2.05859990      -1.33201539      -2.09059810       0.00000000
Si       1.14758164      -0.83205574      -3.17934184       0.00000000
Si      -0.88580134      -1.54847366       3.04987342       0.00000000
Si       1.45469701      -1.28920853       2.98481642       0.00000000
Si      -0.02088378       3.19727091      -1.71745203       0.00000000
H        2.13441356       1.71113420      -2.40669824       0.00000000
