10
Lattice="16.2900001489832 0.0 0.0 0.0 16.2900001489832 0.0 0.0 0.0 29.34461067663915" Properties=species:S:1:pos:R:3:initial_magmoms:R:1 pbc="T T T"
Si       1.37482388      -1.87737853       0.34130717       0.00000000
Si      -2.05945838      -0.94163531       0.85736149       0.00000000
Si       1.05034826       1.65843116       1.41793159       0.00000000
Si       0.04997935       0.25139869      -2.46048692       0.00000000
H       -1.72899944       2.09596427       0.60913543       0.00000000
H       -2.20398326       1.93958027       0.00718943       0.00000000
H        2.30391590       2.09156597      -1.71316772       0.00000000
Si       2.27671160       0.92119462      -2.65636219       0.00000000
Si      -2.80713681      -2.00315363      -1.15922950       0.00000000
Si       2.12052308      -1.92810559       2.61052591       0.00000000
