10
Lattice="16.2900001489832 0.0 0.0 0.0 16.2900001489832 0.0 0.0 0.0 29.34461067663915" Properties=species:S:1:pos:R:3:initial_magmoms:R:1 pbc="T T T"
Si      -1.26436465       1.26571672       1.55567519       0.00000000
Si       1.26442981      -1.30948795       1.56940847       0.00000000
Si       1.29266038       1.53617959      -1.32872104       0.00000000
Si      -1.41320638      -1.48198276      -1.28623004       0.00000000
Si       2.60341895      -0.01578501      -2.49074121       0.00000000
Si      -2.72318303      -0.00231318      -2.63431265       0.00000000
Si      -2.67716378       2.70602966       0.36384383       0.00000000
Si       2.64319913      -2.76356595       0.34521000       0.00000000
Si      -2.66465306      -2.76327273       0.25990522       0.00000000
Si       2.70052364       2.79814962       0.13765557       0.00000000
