10
Lattice="16.2900001489832 0.0 0.0 0.0 16.2900001489832 0.0 0.0 0.0 29.34461067663915" Properties=species:S:1:pos:R:3:initial_magmoms:R:1 pbc="T T T"
Si      -0.28315278       2.22195276      -0.60091894       0.00000000
Si       1.19941642      -0.88311675      -1.79289702       0.00000000
Si      -1.99914140      -1.08964137       0.50261449       0.00000000
Si       1.71110162       0.03187464       1.89733449       0.00000000
H        1.75860326      -1.47066447       1.52823798       0.00000000
Si       3.08695503       1.22806564       0.32314285       0.00000000
Si      -2.21087882       2.50427475       0.77610626       0.00000000
Si       1.62885340       3.07478314       0.40026049       0.00000000
Si      -2.79264360       0.62233665       2.12185011       0.00000000
Si       1.79486480      -3.01256186      -1.03052404       0.00000000
