10
Lattice="16.2900001489832 0.0 0.0 0.0 16.2900001489832 0.0 0.0 0.0 29.34461067663915" Properties=species:S:1:pos:R:3:initial_magmoms:R:1 pbc="T T T"
H        0.04750164      -1.50253911      -0.36909651       0.00000000
Si       1.37585341       1.19619100      -1.57419164       0.00000000
Si      -1.71110162      -0.03187464      -1.89733449       0.00000000
Si       1.35891181      -1.08971793       1.87573686       0.00000000
Si      -0.89368570       1.51697531       1.86699217       0.00000000
Si      -0.08224821       3.04290850      -1.49707400       0.00000000
Si       0.20921247       3.29149390       0.79852555       0.00000000
Si      -0.77359582      -2.16857206       2.61067263       0.00000000
Si       3.05186637      -2.10541573       0.47679123       0.00000000
Si      -0.51168519      -0.91499139      -3.69023152       0.00000000
