10
Lattice="16.2900001489832 0.0 0.0 0.0 16.2900001489832 0.0 0.0 0.0 29.34461067663915" Properties=species:S:1:pos:R:3:initial_magmoms:R:1 pbc="T T T"
H        0.20865861      -0.67303765      -1.35328541       0.00000000
Si       0.76418020       2.22099491      -0.07033903       0.00000000
Si       1.51163056      -1.19667970       1.34856093       0.00000000
Si      -2.33595344       0.13053177       0.32672290       0.00000000
H        2.86083354       0.31236075      -0.81178931       0.00000000
H        0.66876967       1.51205410      -2.64685454       0.00000000
Si      -2.63891486      -0.88773985      -1.86452722       0.00000000
Si       1.49108887       2.31660092       2.22845908       0.00000000
Si       3.47429865      -0.70890823       0.12163341       0.00000000
Si       2.81675280       0.31359879       2.55306916       0.00000000
