10
Lattice="16.2900001489832 0.0 0.0 0.0 16.2900001489832 0.0 0.0 0.0 29.34461067663915" Properties=species:S:1:pos:R:3:initial_magmoms:R:1 pbc="T T T"
Si      -1.98145046       0.54090945       1.20656236       0.00000000
Si       1.87069475      -1.33690402       0.68865932       0.00000000
Si       0.50528322       2.34642465       0.47461973       0.00000000
Si      -0.53269929      -1.39403305      -1.99449450       0.00000000
H       -0.02106297       0.05264928       2.84686740       0.00000000
H       -0.10458180      -0.71705323       2.78137023       0.00000000
Si       3.32817735      -0.56488834      -1.11623965       0.00000000
Si       2.29824209       1.03995361      -2.60911737       0.00000000
Si      -3.24892650       1.64128267      -0.51646515       0.00000000
Si       2.25217397       2.76409048      -0.99328573       0.00000000
