10
Lattice="16.2900001489832 0.0 0.0 0.0 16.2900001489832 0.0 0.0 0.0 29.34461067663915" Properties=species:S:1:pos:R:3:initial_magmoms:R:1 pbc="T T T"
Si       1.33116994       1.33485197       1.44041543       0.00000000
Si      -1.03693996       1.61193021      -1.41632057       0.00000000
Si       1.34617303      -1.46766174      -1.32288733       0.00000000
Si      -1.48043521      -1.28014754       1.42879496       0.00000000
H       -1.31724199      -0.77540189      -3.34410596       0.00000000
Si       2.60610680      -2.70430081       0.27703367       0.00000000
Si      -2.70989039       2.68296514       0.02856404       0.00000000
Si       2.70834040       2.72916358       0.07433577       0.00000000
Si      -2.88829848      -2.54211757      -0.03758164       0.00000000
Si      -0.09093078       2.62867057       2.82084460       0.00000000
