10
Lattice="16.2900001489832 0.0 0.0 0.0 16.2900001489832 0.0 0.0 0.0 29.34461067663915" Properties=species:S:1:pos:R:3:initial_magmoms:R:1 pbc="T T T"
Si      -2.02554749       0.86846878      -0.90959490       0.00000000
Si      -0.73739944      -2.22215150       0.61344909       0.00000000
Si       0.48461121       0.60841522       2.31567126       0.00000000
Si       1.99480174       0.92861146      -1.34800338       0.00000000
H       -1.18654732      -0.89739982      -2.62179424       0.00000000
H       -2.15770826      -2.59059872      -0.30148653       0.00000000
Si      -1.63204624       3.06857991      -0.16931840       0.00000000
Si       2.46950212       1.89763841       1.77173956       0.00000000
Si       1.38479988      -2.77729516      -2.10330431       0.00000000
Si       3.12132693      -1.10877886      -1.86417508       0.00000000
