10
Lattice="16.2900001489832 0.0 0.0 0.0 16.2900001489832 0.0 0.0 0.0 29.34461067663915" Properties=species:S:1:pos:R:3:initial_magmoms:R:1 pbc="T T T"
Si       0.09047466       1.22388400       0.89553883       0.00000000
H       -0.74240047       1.38552967      -1.97327834       0.00000000
Si      -0.68963716      -1.81229184      -1.68863562       0.00000000
Si      -0.55794880       0.07294662       2.87210377       0.00000000
Si       2.31699188       1.95504437       0.22665777       0.00000000
Si      -0.78216436       0.20499336      -2.93942031       0.00000000
Si      -1.58952934      -1.83375717       1.94719099       0.00000000
H       -2.88258069       0.53950852      -1.08536912       0.00000000
Si      -1.92406079       2.56098350       0.32713372       0.00000000
Si      -2.43652790      -2.22995767      -0.22073016       0.00000000
