10
Lattice="16.2900001489832 0.0 0.0 0.0 16.2900001489832 0.0 0.0 0.0 29.34461067663915" Properties=species:S:1:pos:R:3:initial_magmoms:R:1 pbc="T T T"
Si      -1.42684111       0.53538714      -1.80313829       0.00000000
Si      -0.58176478      -1.88193811       1.34574385       0.00000000
Si       1.92772604      -0.28232199      -1.37702520       0.00000000
Si      -0.35104950       1.88999840       1.42887713       0.00000000
H       -2.77957902       0.79894306      -1.15688193       0.00000000
Si       2.21087882      -2.50427475      -0.77610626       0.00000000
Si      -0.49220235       3.48193866      -0.32578387       0.00000000
Si       0.21173742      -3.59391612      -0.27349177       0.00000000
H        2.30032884       2.78353749       0.09443096       0.00000000
Si      -0.70841953       2.58675428      -2.52375390       0.00000000
