10
Lattice="16.2900001489832 0.0 0.0 0.0 16.2900001489832 0.0 0.0 0.0 29.34461067663915" Properties=species:S:1:pos:R:3:initial_magmoms:R:1 pbc="T T T"
Si       0.58176478       1.88193811      -1.34574385       0.00000000
Si      -2.15557427       0.75866115       0.85366407       0.00000000
Si       1.21303486       0.43294422       2.08308588       0.00000000
Si       0.79350220      -1.71197802      -1.61923562       0.00000000
H       -2.27362790      -0.36226843      -2.18652563       0.00000000
Si       2.79264360      -0.62233665      -2.12185011       0.00000000
Si      -1.50286654       2.93591740       1.53657185       0.00000000
H       -2.75851605      -2.33116092      -0.95419871       0.00000000
Si       0.23071527       3.77193650       0.08313328       0.00000000
Si      -0.41394519       1.87156138       3.40784833       0.00000000
