10
Lattice="16.2900001489832 0.0 0.0 0.0 16.2900001489832 0.0 0.0 0.0 29.34461067663915" Properties=species:S:1:pos:R:3:initial_magmoms:R:1 pbc="T T T"
Si       1.76112821       1.03311181       1.18654933       0.00000000
Si      -1.26385966      -1.23958756       1.57633380       0.00000000
Si      -1.43247745       1.36013356      -1.31340608       0.00000000
Si       1.23606892      -1.40227579      -1.49190935       0.00000000
Si       3.31570084      -0.82158616       1.22296599       0.00000000
Si      -2.57271230      -2.65033415       0.08683070       0.00000000
Si       2.55469556      -2.69716790      -0.04568956       0.00000000
Si      -0.07543899       2.68960934      -2.71675340       0.00000000
Si      -2.93472498       0.11251503       2.51706333       0.00000000
Si       2.60995124      -0.02459790      -2.85514259       0.00000000
