10
Lattice="16.2900001489832 0.0 0.0 0.0 16.2900001489832 0.0 0.0 0.0 29.34461067663915" Properties=species:S:1:pos:R:3:initial_magmoms:R:1 pbc="T T T"
Si       0.47684088      -0.04958676      -2.30140333       0.00000000
Si      -0.66823210      -1.93100033       1.23352184       0.00000000
Si       1.94588450       0.73324549       1.18533799       0.00000000
Si      -1.86820238       1.59954769       0.15832415       0.00000000
H        3.07864713      -0.77651173      -0.81832670       0.00000000
Si       0.59763026       2.01176615       2.66709704       0.00000000
Si      -2.25849449      -0.84393604       2.64688740       0.00000000
Si       2.75884185      -0.61392124      -2.29324552       0.00000000
Si      -0.88788646       3.34184466       1.38638672       0.00000000
Si      -1.50711823      -3.39196899      -0.37625014       0.00000000
