10
Lattice="16.2900001489832 0.0 0.0 0.0 16.2900001489832 0.0 0.0 0.0 29.34461067663915" Properties=species:S:1:pos:R:3:initial_magmoms:R:1 pbc="T T T"
Si       0.14812497       0.59728915       1.38940863       0.00000000
H       -2.10189872       1.61005474      -0.28760653       0.00000000
Si      -0.37626642      -1.57609009      -2.16821459       0.00000000
Si      -1.02468988      -2.72702747      -0.19164965       0.00000000
Si       1.90202042      -0.65821375       2.26534525       0.00000000
Si      -2.00756333       0.20448837       2.27183041       0.00000000
Si       1.12917394       2.71699283       1.10673199       0.00000000
H        1.69622885      -2.76467367      -0.38324062       0.00000000
Si      -2.78133834      -1.51394374       0.82138500       0.00000000
H        2.17121267      -2.60828966       0.21870538       0.00000000
