10
Lattice="16.2900001489832 0.0 0.0 0.0 16.2900001489832 0.0 0.0 0.0 29.34461067663915" Properties=species:S:1:pos:R:3:initial_magmoms:R:1 pbc="T T T"
Si       1.32519151       1.36816453      -1.40349404       0.00000000
Si       1.55095690      -1.36352188       1.18836870       0.00000000
Si      -1.29098251      -1.39406563      -1.44384288       0.00000000
Si      -1.43506756       1.40053276       1.30777192       0.00000000
Si       0.00293220       2.76011247       2.59582426       0.00000000
Si      -2.64802097      -2.72354141      -0.04049556       0.00000000
Si       2.72033880      -0.01075140      -2.70874232       0.00000000
Si       2.78232551       2.64833048      -0.04175738       0.00000000
Si      -2.73966852      -0.05320314      -2.76605235       0.00000000
Si      -2.78410764       2.74628226      -0.11212576       0.00000000
