10
Lattice="16.2900001489832 0.0 0.0 0.0 16.2900001489832 0.0 0.0 0.0 29.34461067663915" Properties=species:S:1:pos:R:3:initial_magmoms:R:1 pbc="T T T"
Si      -1.59760918       1.49268529      -0.79987540       0.00000000
Si      -0.98104897      -2.11970369       0.28267663       0.00000000
Si       0.72467695       1.27190692       1.87723343       0.00000000
Si       1.65452645      -0.13356171      -1.77153415       0.00000000
H       -1.12917394      -2.71699283      -1.10673199       0.00000000
H        1.64054963       0.45844947       2.78864770       0.00000000
Si       2.40751541       2.48499065       0.82728326       0.00000000
Si       0.77284648      -3.37520658       1.15861326       0.00000000
Si       0.44924562       1.06414426      -3.47475404       0.00000000
H       -2.79262731       1.45266076       1.90191225       0.00000000
