10
Lattice="16.2900001489832 0.0 0.0 0.0 16.2900001489832 0.0 0.0 0.0 29.34461067663915" Properties=species:S:1:pos:R:3:initial_magmoms:R:1 pbc="T T T"
Si       0.26883208      -1.43896087       1.89639546       0.00000000
Si      -0.18197575      -1.71388721      -1.68405786       0.00000000
Si       0.03671180       2.54044181       0.20632196       0.00000000
Si       2.27263405       0.49073625      -1.08935998       0.00000000
Si      -2.56106512      -0.24280245       0.13862394       0.00000000
H       -1.17403676      -2.67771764      -1.09029901       0.00000000
H       -1.63377315       1.73576468      -2.03610516       0.00000000
Si      -2.65342942       0.61848244      -2.11137408       0.00000000
Si       0.32308756       2.57610062       2.64456566       0.00000000
Si       3.20772893       2.01390014       0.53747589       0.00000000
