10
Lattice="16.2900001489832 0.0 0.0 0.0 16.2900001489832 0.0 0.0 0.0 29.34461067663915" Properties=species:S:1:pos:R:3:initial_magmoms:R:1 pbc="T T T"
Si      -1.86041576       0.59834800      -1.36428964       0.00000000
Si       1.78422743       1.66491947      -0.22252018       0.00000000
Si       0.50282343      -0.93812482      -2.20797654       0.00000000
Si       0.34217145      -1.77090221       1.69198091       0.00000000
Si       2.61333956      -0.13879080      -1.49745548       0.00000000
H       -0.78126841       1.56452419       2.64796963       0.00000000
H       -1.71488090      -3.09775530       0.47596959       0.00000000
Si      -0.62245720       0.73914247      -3.45996436       0.00000000
Si       1.80242336      -3.27850914       0.45129077       0.00000000
Si      -0.51986277      -3.05773077      -2.22581806       0.00000000
