10
Lattice="16.2900001489832 0.0 0.0 0.0 16.2900001489832 0.0 0.0 0.0 29.34461067663915" Properties=species:S:1:pos:R:3:initial_magmoms:R:1 pbc="T T T"
Si       0.24863101       1.33884253       1.93278278       0.00000000
Si       1.54267605      -1.78426001      -0.39301237       0.00000000
Si       0.47910194       1.11027754      -2.06571387       0.00000000
Si      -1.98489091      -1.28922319       0.54393170       0.00000000
H        1.06604693      -1.44640540       2.61219855       0.00000000
Si       1.03884263      -2.61677675       1.66900408       0.00000000
Si      -0.47470038      -0.96902695      -3.11974294       0.00000000
Si      -2.46950212      -1.89763841      -1.77173956       0.00000000
Si      -3.28783028       0.32135283       1.87870066       0.00000000
Si       2.39705397       0.95992084       2.79660009       0.00000000
