10
Lattice="16.2900001489832 0.0 0.0 0.0 16.2900001489832 0.0 0.0 0.0 29.34461067663915" Properties=species:S:1:pos:R:3:initial_magmoms:R:1 pbc="T T T"
Si      -1.19886256      -1.29243232      -1.49456982       0.00000000
Si      -1.51288489       1.12541095       1.37266459       0.00000000
Si       1.39201309      -1.55193202       1.17906352       0.00000000
Si       0.70915258       1.80582797      -1.41518963       0.00000000
H       -2.21459294      -0.33549255      -2.08452963       0.00000000
Si       0.56224936      -1.36611199      -3.23416345       0.00000000
Si      -0.04030146       2.52827318       2.58208511       0.00000000
Si       2.66892104       2.49526964      -0.27078620       0.00000000
Si      -2.89880553       2.42100353      -0.03816560       0.00000000
Si      -1.08025507       3.44888625      -1.11692924       0.00000000
