10
Lattice="16.2900001489832 0.0 0.0 0.0 16.2900001489832 0.0 0.0 0.0 29.34461067663915" Properties=species:S:1:pos:R:3:initial_magmoms:R:1 pbc="T T T"
Si       1.51893500      -1.34718301       1.15509191       0.00000000
Si       1.45092425       1.35153244      -1.27619712       0.00000000
Si      -1.30696121       1.40665780       1.37406139       0.00000000
Si      -1.45713400      -1.28016595      -1.36173666       0.00000000
Si      -0.01997480       2.69042384      -2.58185623       0.00000000
Si      -0.06198671      -2.65908188      -2.66698494       0.00000000
Si      -2.77939331       0.11178198       2.63758164       0.00000000
Si      -2.78232551      -2.64833048       0.04175738       0.00000000
Si      -2.73661577       2.73395073      -0.02579391       0.00000000
Si       2.77329759      -2.69329088      -0.24382437       0.00000000
