10
Lattice="16.2900001489832 0.0 0.0 0.0 16.2900001489832 0.0 0.0 0.0 29.34461067663915" Properties=species:S:1:pos:R:3:initial_magmoms:R:1 pbc="T T T"
Si      -1.64134783       0.86032378       1.43812068       0.00000000
Si       0.40356846      -2.14482287       0.86848310       0.00000000
Si       1.74244358       1.48258549       0.59995057       0.00000000
Si      -0.34829649       0.00847080      -2.50963914       0.00000000
Si      -3.50430646       0.21315465       0.17046284       0.00000000
Si      -1.34348518       3.17568666       1.09129673       0.00000000
Si       3.64985598       0.30604023       0.02271273       0.00000000
Si       1.70797394      -3.12730536      -0.85900479       0.00000000
Si       3.03798729      -1.26864892      -1.65198420       0.00000000
Si      -1.76632472      -2.97496128       1.36901412       0.00000000
