10
Lattice="16.2900001489832 0.0 0.0 0.0 16.2900001489832 0.0 0.0 0.0 29.34461067663915" Properties=species:S:1:pos:R:3:initial_magmoms:R:1 pbc="T T T"
Si      -0.95397988      -1.86645935       1.04352370       0.00000000
Si      -1.23844237       1.78140926      -0.89996986       0.00000000
Si       0.92181853       1.37119447       1.69110057       0.00000000
Si       1.36122499      -0.91432513      -1.75997237       0.00000000
H        2.70389567      -0.66758050       0.63927234       0.00000000
H        2.36517770      -1.27663102       0.99337376       0.00000000
H       -3.30354687      -1.14445396      -0.62958862       0.00000000
Si       0.54291313       3.20829924      -1.54249946       0.00000000
Si       2.13899105       2.88241779       0.30301245       0.00000000
Si      -1.08566335       2.32580477       2.55113242       0.00000000
