10
Lattice="16.28999089631971 0.0 0.0 0.0 16.28999089631971 0.0 0.0 0.0 34.31420841018396" Properties=species:S:1:pos:R:3:initial_magmoms:R:1 pbc="T T T"
Si       1.35669636      -1.35565380       1.35589239       0.00000000
Si      -1.35738054      -1.35539316      -1.35702476       0.00000000
Si       1.35759231       1.35941679      -1.35705907       0.00000000
Si      -1.35654975       1.35847197       1.36230915       0.00000000
Si       0.01542663      -2.69763703       2.72506438       0.00000000
Si       2.71370223      -2.71253750      -0.00017157       0.00000000
Si       0.00045612      -2.71329498      -2.71477012       0.00000000
Si       2.71472850       0.00223173      -2.71483874       0.00000000
Si      -2.71485882       0.00184077      -2.71538777       0.00000000
Si      -2.71647153      -2.71496308       0.00048040       0.00000000
