10
Lattice="16.28999089631971 0.0 0.0 0.0 16.28999089631971 0.0 0.0 0.0 34.31420841018396" Properties=species:S:1:pos:R:3:initial_magmoms:R:1 pbc="T T T"
Si      -1.35588186      -1.35604425      -1.35764241       0.00000000
Si      -1.35399222       1.35906493       1.36025030       0.00000000
Si       1.35731538      -1.35632236       1.36018167       0.00000000
Si       1.35909099       1.35956992      -1.35750516       0.00000000
Si      -0.02378340      -2.70967927       2.71061809       0.00000000
Si       0.00144981      -2.71301872      -2.71528483       0.00000000
Si      -2.71362893       0.00178538      -2.71545640       0.00000000
Si      -2.71576780      -2.71528303      -0.00137257       0.00000000
Si       2.71782360      -2.71334452      -0.00147551       0.00000000
Si       2.71647153       2.71496308      -0.00048040       0.00000000
