10
Lattice="16.28999089631971 0.0 0.0 0.0 16.28999089631971 0.0 0.0 0.0 34.31420841018396" Properties=species:S:1:pos:R:3:initial_magmoms:R:1 pbc="T T T"
Si      -2.13700365      -0.09557343       0.82443363       0.00000000
Si       1.82055411      -0.31429926       1.41189321       0.00000000
Si       0.48190707       1.95771591      -1.26310672       0.00000000
Si      -0.53224317      -2.17525094      -0.87003724       0.00000000
Si       3.29879016      -0.52289271      -0.47079120       0.00000000
Si      -2.88019743      -1.47201327      -0.98190162       0.00000000
Si       2.36452608       0.60755184      -2.47669800       0.00000000
Si      -2.85025804       2.10626442       1.14966388       0.00000000
Si      -2.13856749      -1.07228925       2.92412122       0.00000000
Si       0.41130621       3.77677134       0.31888212       0.00000000
