10
Lattice="16.28999089631971 0.0 0.0 0.0 16.28999089631971 0.0 0.0 0.0 34.31420841018396" Properties=species:S:1:pos:R:3:initial_magmoms:R:1 pbc="T T T"
Si       0.33239745      -0.47413022       2.22181192       0.00000000
Si       1.69528401      -0.36580009      -1.51147310       0.00000000
Si      -1.63499472      -1.32538209      -1.03364748       0.00000000
Si      -0.73011780       2.22987294       0.40583437       0.00000000
Si      -1.91959731      -2.49397361       0.95633752       0.00000000
Si      -3.09545838       0.47416932      -1.47818830       0.00000000
Si       1.61055972       1.44032922       2.81788437       0.00000000
Si       3.53996361       0.19479582      -0.20615988       0.00000000
Si      -1.98562068      -0.87821182       2.84125236       0.00000000
Si      -3.08700387       1.80817371       0.47707071       0.00000000
