10
Lattice="16.28999089631971 0.0 0.0 0.0 16.28999089631971 0.0 0.0 0.0 34.31420841018396" Properties=species:S:1:pos:R:3:initial_magmoms:R:1 pbc="T T T"
Si      -0.28460259      -1.16859151       1.98998500       0.00000000
Si       1.63499472       1.32538209       1.03364748       0.00000000
Si      -1.46046366       1.79955141      -0.44454082       0.00000000
Si       0.01306458      -1.62075304      -1.83804160       0.00000000
Si      -3.42599388       0.46347331      -0.36496612       0.00000000
Si       3.33027873       0.95958200      -0.47782562       0.00000000
Si      -1.66596201      -2.91944071       1.26358712       0.00000000
Si      -3.06200035      -1.83592765      -0.45085464       0.00000000
Si      -0.42375177       2.89710645      -2.34506863       0.00000000
Si      -1.45200915       3.13355580       1.51071818       0.00000000
