10
Lattice="16.28999089631971 0.0 0.0 0.0 16.28999089631971 0.0 0.0 0.0 34.31420841018396" Properties=species:S:1:pos:R:3:initial_magmoms:R:1 pbc="T T T"
Si      -1.30606704       1.35448092       1.48770363       0.00000000
Si      -1.48745619      -0.87832422      -1.66618020       0.00000000
Si       1.38531789      -1.36503684       1.47855203       0.00000000
Si       1.83446577       1.11083139      -1.22929146       0.00000000
Si      -2.72086983      -2.55397878      -0.12962886       0.00000000
Si       3.51979659      -0.79842177      -1.17709090       0.00000000
Si      -2.61343728       2.79373500       0.11280116       0.00000000
Si       2.77299783      -2.69208540       0.05068211       0.00000000
Si      -2.67494832      -0.00221544       2.85655307       0.00000000
Si       0.04601925       2.71083519       2.85579816       0.00000000
