10
Lattice="16.28999089631971 0.0 0.0 0.0 16.28999089631971 0.0 0.0 0.0 34.31420841018396" Properties=species:S:1:pos:R:3:initial_magmoms:R:1 pbc="T T T"
Si      -1.25089281       1.42337133      -1.39703515       0.00000000
Si       1.49566635      -1.29601611      -1.37627504       0.00000000
Si      -1.74775410      -1.13826375       1.33053417       0.00000000
Si       1.01750598       1.93186368       1.40437839       0.00000000
Si      -2.76560217       2.55207285       0.11423206       0.00000000
Si      -2.59243947       0.07097553      -2.77049642       0.00000000
Si       0.11912877      -2.64450231      -2.76363358       0.00000000
Si      -0.47938212      -2.53558737       2.88582654       0.00000000
Si       0.11720655       2.78707239      -2.76425123       0.00000000
Si      -2.73142575      -2.82390408      -0.02463762       0.00000000
