10
Lattice="16.28999089631971 0.0 0.0 0.0 16.28999089631971 0.0 0.0 0.0 34.31420841018396" Properties=species:S:1:pos:R:3:initial_magmoms:R:1 pbc="T T T"
Si      -0.48190707      -1.95771591       1.26310672       0.00000000
Si      -0.07060086       1.81905543       1.58198883       0.00000000
Si      -1.26837198       1.39732362      -1.55529237       0.00000000
Si       1.88261901      -1.35016407      -1.21359129       0.00000000
Si      -2.25204363      -0.28831671      -2.91046416       0.00000000
Si       1.99835946       1.68671547       2.69359824       0.00000000
Si       1.33864704      -2.27201517       2.67499993       0.00000000
Si       2.81688309      -2.48060862       0.79231551       0.00000000
Si       0.47938212       2.53558737      -2.88582654       0.00000000
Si      -2.61891072      -2.05328934       2.08754035       0.00000000
