10
Lattice="16.28999089631971 0.0 0.0 0.0 16.28999089631971 0.0 0.0 0.0 34.31420841018396" Properties=species:S:1:pos:R:3:initial_magmoms:R:1 pbc="T T T"
Si       1.35483930      -1.35542574       1.36172581       0.00000000
Si      -1.35208629      -1.35635427      -1.36809453       0.00000000
Si      -1.36119240       1.36000323       1.36121109       0.00000000
Si       1.35408996       1.36655181      -1.39617043       0.00000000
Si      -2.65945653       0.08289981      -2.74299700       0.00000000
Si       2.71081890      -2.71098180      -0.00322554       0.00000000
Si       2.71456560       2.71622718       0.00126963       0.00000000
Si      -0.00226431      -2.71272483       2.71833880       0.00000000
Si       2.71300176       0.00250866       2.71892214       0.00000000
Si      -2.71668330       2.71583622       0.00833836       0.00000000
