10
Lattice="16.28999089631971 0.0 0.0 0.0 16.28999089631971 0.0 0.0 0.0 34.31420841018396" Properties=species:S:1:pos:R:3:initial_magmoms:R:1 pbc="T T T"
Si      -1.34154666      -1.35239580      -1.37346127       0.00000000
Si       1.25089281      -1.42337133       1.39703515       0.00000000
Si       1.36809936       1.36370106      -1.36721608       0.00000000
Si      -1.51470936       1.12870152       1.51126721       0.00000000
Si       2.26839879       0.50849235       2.80141354       0.00000000
Si       0.13978449       2.45750940       2.69521101       0.00000000
Si      -0.49686129      -2.56163508       2.72756932       0.00000000
Si      -2.70787530       2.70622512       0.01437766       0.00000000
Si      -2.70244421      -2.72776050      -0.01509826       0.00000000
Si      -2.70422960       0.00399105      -2.72866738       0.00000000
