10
Lattice="16.28999089631971 0.0 0.0 0.0 16.28999089631971 0.0 0.0 0.0 34.31420841018396" Properties=species:S:1:pos:R:3:initial_magmoms:R:1 pbc="T T T"
Si      -1.50524487       1.24664112       1.23733673       0.00000000
Si       1.31838228       1.37852496      -1.35942675       0.00000000
Si      -1.39575978      -1.33742529      -1.35688750       0.00000000
Si       1.42399035      -1.36207206       1.55659631       0.00000000
Si      -0.49546035      -2.19263400       2.81174212       0.00000000
Si      -2.62407465      -0.24361695       2.70553959       0.00000000
Si       2.67752214       0.01980864      -2.71789271       0.00000000
Si       2.67191838       2.73085560       0.02813767       0.00000000
Si       2.69099397      -2.71288773       0.02631901       0.00000000
Si      -0.03824892      -2.69555517      -2.71871625       0.00000000
