10
Lattice="16.28999089631971 0.0 0.0 0.0 16.28999089631971 0.0 0.0 0.0 34.31420841018396" Properties=species:S:1:pos:R:3:initial_magmoms:R:1 pbc="T T T"
Si       1.27229787      -1.49123547       1.24481723       0.00000000
Si      -1.33012737      -1.36058967      -1.35400511       0.00000000
Si       1.38109878       1.35335691      -1.35043643       0.00000000
Si      -1.33413471       1.40759416       1.40465291       0.00000000
Si       2.10628071       0.35802162       2.42282467       0.00000000
Si       0.52861050       2.26618076       2.54484606       0.00000000
Si      -2.69198440      -0.00560376      -2.71199066       0.00000000
Si      -2.69769405       2.71488230       0.00775502       0.00000000
Si       0.02378340       2.70967927      -2.71061809       0.00000000
Si      -2.69419170      -2.73277782       0.03218675       0.00000000
