10
Lattice="16.28999089631971 0.0 0.0 0.0 16.28999089631971 0.0 0.0 0.0 34.31420841018396" Properties=species:S:1:pos:R:3:initial_magmoms:R:1 pbc="T T T"
Si      -2.01776085       0.84118302       0.78246733       0.00000000
Si       1.66659732       1.03151538       1.27127350       0.00000000
Si       0.24716817      -2.35934586      -0.27653836       0.00000000
Si       0.16456158       1.15062429      -2.09766305       0.00000000
Si      -0.41070348      -0.79527780      -3.28750889       0.00000000
Si       3.40022799       0.72971055      -0.25982733       0.00000000
Si      -2.50292592      -1.42249167      -2.18255645       0.00000000
Si      -3.43254735       0.47009682      -1.06978036       0.00000000
Si       0.58147155       3.07292021       1.84277696       0.00000000
Si       2.42030304       1.81662400      -2.15730117       0.00000000
