10
Lattice="16.28999089631971 0.0 0.0 0.0 16.28999089631971 0.0 0.0 0.0 34.31420841018396" Properties=species:S:1:pos:R:3:initial_magmoms:R:1 pbc="T T T"
Si       1.35674523       1.35560493       1.35815713       0.00000000
Si      -1.35764118       1.35757602      -1.35716202       0.00000000
Si      -1.35866745      -1.35719320       1.35750516       0.00000000
Si       1.35839052      -1.35814780      -1.35743653       0.00000000
Si      -2.71567332      -0.00030951       2.71356912       0.00000000
Si      -2.71477737       2.71476108       0.00061766       0.00000000
Si      -2.71560816       0.00014661      -2.71398089       0.00000000
Si      -2.71484253      -2.71479800       0.00024020       0.00000000
Si       2.71591767      -0.00061902      -2.71387795       0.00000000
Si       2.71511946       2.71494027       0.00024020       0.00000000
