10
Lattice="16.28999089631971 0.0 0.0 0.0 16.28999089631971 0.0 0.0 0.0 34.31420841018396" Properties=species:S:1:pos:R:3:initial_magmoms:R:1 pbc="T T T"
Si       1.08299178       1.54808757       1.33564699       0.00000000
Si      -1.21790556      -1.32230817       1.51679180       0.00000000
Si       1.34143263      -1.33060793      -1.40544213       0.00000000
Si      -1.38478032       1.39856166      -1.39813320       0.00000000
Si       2.30141862      -0.17228304       2.90089049       0.00000000
Si       2.65370616       2.67980274      -0.04042216       0.00000000
Si      -2.61729801       2.76333786       0.20650302       0.00000000
Si      -2.77257429      -2.63685758       0.06667254       0.00000000
Si       2.56802076      -2.86012394       0.03808879       0.00000000
Si      -0.01881495      -2.66731550      -2.77856026       0.00000000
