10
Lattice="16.28999089631971 0.0 0.0 0.0 16.28999089631971 0.0 0.0 0.0 34.31420841018396" Properties=species:S:1:pos:R:3:initial_magmoms:R:1 pbc="T T T"
Si      -2.25574146      -0.66599971       0.05963813       0.00000000
Si       0.97992495      -1.08691345       1.89747384       0.00000000
Si       0.16713540       2.26322997       0.80552649       0.00000000
Si       0.59311890      -0.54374196      -2.28618541       0.00000000
Si       2.46083256       2.55812784       0.30584271       0.00000000
Si      -0.75370572      -0.78510862       3.42857468       0.00000000
Si      -2.42030304      -1.81662400       2.15730117       0.00000000
Si       2.69438229       0.56449248      -2.67812252       0.00000000
Si       1.13871987      -2.87565319      -2.32434283       0.00000000
Si      -0.58699386       3.84948501      -0.77220738       0.00000000
