10
Lattice="16.28999089631971 0.0 0.0 0.0 16.28999089631971 0.0 0.0 0.0 34.31420841018396" Properties=species:S:1:pos:R:3:initial_magmoms:R:1 pbc="T T T"
Si       1.35628911       1.35760860       1.35651004       0.00000000
Si       1.35703845      -1.35703845      -1.35757379       0.00000000
Si      -1.35769005       1.35775521      -1.35699044       0.00000000
Si      -1.35769005      -1.35803214       1.35757379       0.00000000
Si       2.71184517      -0.00092853       2.71545640       0.00000000
Si       2.71353933      -0.00014661      -2.71404952       0.00000000
Si       0.00016290       2.71345788      -2.71456423       0.00000000
Si       0.00387702       2.71353933       2.71473580       0.00000000
Si       2.71441899       2.71487511      -0.00078923       0.00000000
Si       2.71450044      -2.71484253      -0.00010294       0.00000000
