10
Lattice="16.28999089631971 0.0 0.0 0.0 16.28999089631971 0.0 0.0 0.0 34.31420841018396" Properties=species:S:1:pos:R:3:initial_magmoms:R:1 pbc="T T T"
Si      -1.35785295      -1.35570267       1.35757379       0.00000000
Si       1.35804843      -1.35725022      -1.35719633       0.00000000
Si       1.35669636       1.35920502       1.35726496       0.00000000
Si      -1.35628911       1.35801585      -1.36007872       0.00000000
Si       0.00708615       2.69861769      -2.71036417       0.00000000
Si       0.00420282      -2.68885998      -2.73057182       0.00000000
Si       2.71337643      -2.71360449       0.00051471       0.00000000
Si      -0.00016290      -2.71345788       2.71456423       0.00000000
Si       2.71425609       0.00141723       2.71377500       0.00000000
Si       2.71238274       2.71629234       0.00017157       0.00000000
