10
Lattice="16.28999089631971 0.0 0.0 0.0 16.28999089631971 0.0 0.0 0.0 34.31420841018396" Properties=species:S:1:pos:R:3:initial_magmoms:R:1 pbc="T T T"
Si       1.37016819      -1.28855529       1.33216410       0.00000000
Si       1.50623856       1.12845717      -1.37358553       0.00000000
Si      -1.27312866      -1.15393473      -1.59857431       0.00000000
Si      -1.35824391       1.44466333       1.30882699       0.00000000
Si      -0.19310166       2.07234605      -2.67741363       0.00000000
Si       0.54208233      -1.99655127      -2.95896187       0.00000000
Si      -2.24806887       0.77760315      -2.78848878       0.00000000
Si       0.00679293      -2.62915713       2.68244954       0.00000000
Si       2.67548589      -2.64642453      -0.17381872       0.00000000
Si      -2.76581394      -2.59077789      -0.23327841       0.00000000
