10
Lattice="16.28999089631971 0.0 0.0 0.0 16.28999089631971 0.0 0.0 0.0 34.31420841018396" Properties=species:S:1:pos:R:3:initial_magmoms:R:1 pbc="T T T"
Si      -1.37016819       1.28855529      -1.33216410       0.00000000
Si      -1.36337526      -1.34060184       1.35028544       0.00000000
Si       1.35293337       1.37474568       1.35275607       0.00000000
Si       1.30531770      -1.35786924      -1.50598282       0.00000000
Si       0.13607037       2.41701246      -2.70574963       0.00000000
Si       2.69956251      -2.69053785      -0.02679255       0.00000000
Si      -0.00708615      -2.69861769       2.71036417       0.00000000
Si      -2.72385090      -2.69027721      -0.04715461       0.00000000
Si       2.70529659       0.01767465       2.71053574       0.00000000
Si       2.70609480       2.72133869      -0.00840699       0.00000000
