10
Lattice="16.28999089631971 0.0 0.0 0.0 16.28999089631971 0.0 0.0 0.0 34.31420841018396" Properties=species:S:1:pos:R:3:initial_magmoms:R:1 pbc="T T T"
Si      -1.31838228      -1.37852496       1.35942675       0.00000000
Si      -1.35431802       1.35568638      -1.36014735       0.00000000
Si       1.35913986      -1.35871632      -1.35846596       0.00000000
Si       1.35353610       1.35233064       1.38756442       0.00000000
Si       2.54247804      -0.22170690       2.83850722       0.00000000
Si      -2.71482624       2.71270854       0.00150983       0.00000000
Si      -2.82362715      -0.13188384       2.59676349       0.00000000
Si      -2.71313208      -0.00138465      -2.71634857       0.00000000
Si      -2.71414206      -2.71595025       0.00253925       0.00000000
Si       0.00185706       2.71385169      -2.71658877       0.00000000
