10
Lattice="16.28999089631971 0.0 0.0 0.0 16.28999089631971 0.0 0.0 0.0 34.31420841018396" Properties=species:S:1:pos:R:3:initial_magmoms:R:1 pbc="T T T"
Si       1.59097914       1.22572476       1.18212514       0.00000000
Si      -0.58974687       0.74849292      -2.12830565       0.00000000
Si      -1.93968288       0.50209038       1.19492435       0.00000000
Si       0.98086977      -2.14361739       0.16927208       0.00000000
Si      -1.19995398      -0.37020654       3.18600740       0.00000000
Si       1.10218140       0.30708279       3.33462232       0.00000000
Si       1.37217186       1.80240705      -3.01018130       0.00000000
Si      -3.73814775      -0.51171777       0.10805550       0.00000000
Si      -2.59755453       2.06615844      -1.81604618       0.00000000
Si      -0.16804764      -3.67383483      -1.19547337       0.00000000
