10
Lattice="16.28999089631971 0.0 0.0 0.0 16.28999089631971 0.0 0.0 0.0 34.31420841018396" Properties=species:S:1:pos:R:3:initial_magmoms:R:1 pbc="T T T"
Si       1.27312866       1.15393473       1.59857431       0.00000000
Si       1.81521099      -0.84261654      -1.36038755       0.00000000
Si      -0.97494021       1.93153788      -1.18991447       0.00000000
Si      -1.49268528      -1.43684316       1.36529590       0.00000000
Si       1.08002700       3.22628078      -1.07883932       0.00000000
Si       2.77936722       2.28239190       0.22498879       0.00000000
Si       1.17224469      -0.84369168      -3.62090592       0.00000000
Si      -0.08511525       2.59859806       2.90740131       0.00000000
Si       2.76755697      -2.76226272      -0.27060200       0.00000000
Si       2.64329685      -0.13462056       2.93073841       0.00000000
