10
Lattice="16.28999089631971 0.0 0.0 0.0 16.28999089631971 0.0 0.0 0.0 34.31420841018396" Properties=species:S:1:pos:R:3:initial_magmoms:R:1 pbc="T T T"
Si       2.02727421       0.98824914       0.52610574       0.00000000
Si       1.59495390      -1.32975596      -1.29601406       0.00000000
Si      -1.21842684       1.72037061      -1.56524349       0.00000000
Si      -0.80106075      -1.23893595       2.40278516       0.00000000
Si       1.58329026       1.09004535       2.76672186       0.00000000
Si      -0.85869477       1.14132627       3.07208417       0.00000000
Si      -2.30141862       0.17228304      -2.90089049       0.00000000
Si      -3.58107957      -0.80076753       0.99360277       0.00000000
Si       0.26660214      -2.68784090      -2.86280169       0.00000000
Si      -3.51932418      -1.15002513      -1.38409868       0.00000000
