10
Lattice="16.28999089631971 0.0 0.0 0.0 16.28999089631971 0.0 0.0 0.0 34.31420841018396" Properties=species:S:1:pos:R:3:initial_magmoms:R:1 pbc="T T T"
Si       0.27447021      -0.92175336       2.14303109       0.00000000
Si      -2.08523403       0.93100608      -0.72111349       0.00000000
Si       0.70838694      -1.16668980      -1.97162689       0.00000000
Si       1.12107780       2.10883824       0.43256515       0.00000000
Si       0.95118939       0.84541842      -3.11607501       0.00000000
Si      -1.33349940       1.23131223      -2.93592531       0.00000000
Si       1.93500765       2.55397878      -1.78183490       0.00000000
Si       1.16678754       1.03693995       3.35623484       0.00000000
Si      -2.27740716       3.06825408       0.19102730       0.00000000
Si       2.12543775      -2.62674132       1.95512175       0.00000000
