10
Lattice="16.28999089631971 0.0 0.0 0.0 16.28999089631971 0.0 0.0 0.0 34.31420841018396" Properties=species:S:1:pos:R:3:initial_magmoms:R:1 pbc="T T T"
Si       1.33889139       1.34283357      -1.37175929       0.00000000
Si       1.35233799      -1.35850455       1.35891204       0.00000000
Si      -1.36230012       1.35645201       1.35922087       0.00000000
Si      -1.35718506      -1.37354022      -1.38562567       0.00000000
Si      -0.11872152       2.55406023      -2.75109173       0.00000000
Si       2.71152981      -0.00138465       2.71614268       0.00000000
Si      -0.00358380       2.71363707       2.71531914       0.00000000
Si       2.71469822       2.71516833      -0.00329417       0.00000000
Si       2.71131967      -2.71888245       0.00068628       0.00000000
Si      -2.71762812       2.71280628       0.00150983       0.00000000
