10
Lattice="16.28999089631971 0.0 0.0 0.0 16.28999089631971 0.0 0.0 0.0 34.31420841018396" Properties=species:S:1:pos:R:3:initial_magmoms:R:1 pbc="T T T"
Si      -1.52352225      -1.18477170      -1.34573538       0.00000000
Si       1.23775152       1.51399260      -1.31557317       0.00000000
Si      -0.94522725       1.66575024       1.42603067       0.00000000
Si       1.47259549      -1.17667557       1.49575718       0.00000000
Si      -0.12504204      -2.47953348      -2.71720643       0.00000000
Si       2.52292094      -2.71552671       0.06605489       0.00000000
Si       0.15146442      -3.04860834       2.12168301       0.00000000
Si       2.59006995       0.23713353      -2.73079486       0.00000000
Si       2.87059841       2.43755415       0.41475607       0.00000000
Si       0.95337225       2.94326091       2.27098421       0.00000000
