10
Lattice="16.28999089631971 0.0 0.0 0.0 16.28999089631971 0.0 0.0 0.0 34.31420841018396" Properties=species:S:1:pos:R:3:initial_magmoms:R:1 pbc="T T T"
Si       1.90242765      -0.88112610       1.12180073       0.00000000
Si      -1.64535516      -1.72519245       0.19236556       0.00000000
Si       0.11155392       0.35046306      -2.36689248       0.00000000
Si      -0.63140040       2.15493894       0.93207736       0.00000000
Si      -2.42227413       2.55829563      -0.59500871       0.00000000
Si      -1.34674317       2.13032475      -2.64531812       0.00000000
Si       3.66917493       0.51015393       0.33092641       0.00000000
Si      -1.61890020      -2.28113757       2.50775238       0.00000000
Si      -0.72793494      -0.36232218       3.67484789       0.00000000
Si      -0.81699237      -3.61169500      -1.05265756       0.00000000
