10
Lattice="16.28999089631971 0.0 0.0 0.0 16.28999089631971 0.0 0.0 0.0 34.31420841018396" Properties=species:S:1:pos:R:3:initial_magmoms:R:1 pbc="T T T"
Si       1.16071137      -1.92402819       0.70759369       0.00000000
Si       1.39180131       0.75870675      -1.76982492       0.00000000
Si      -2.04877701      -0.91657314      -0.83534556       0.00000000
Si      -0.62358120       1.17631719       2.07659411       0.00000000
Si      -0.40195575       1.04519898      -3.33311250       0.00000000
Si       0.17689311      -3.63258855      -0.62664642       0.00000000
Si       0.34678152      -2.36916873       2.92199374       0.00000000
Si       1.25455806       2.36586186       2.66775962       0.00000000
Si      -3.70823931      -0.33246261       0.68453453       0.00000000
Si       2.36353958       2.81430927      -0.99312237       0.00000000
