10
Lattice="16.28999089631971 0.0 0.0 0.0 16.28999089631971 0.0 0.0 0.0 34.31420841018396" Properties=species:S:1:pos:R:3:initial_magmoms:R:1 pbc="T T T"
Si      -1.65946230       0.58411053       1.51988008       0.00000000
Si       0.03751587       0.18713952      -2.35392170       0.00000000
Si      -0.05901867      -2.33012160       0.38884883       0.00000000
Si       2.04877701       0.91657314       0.83534556       0.00000000
Si       2.22567012      -2.71601541       0.20869913       0.00000000
Si       1.64682126       1.96177212      -2.49776694       0.00000000
Si      -3.42669924      -0.76582548       0.87741480       0.00000000
Si      -1.00292643      -0.49317975       3.51580144       0.00000000
Si       3.20948838      -1.00745505       1.54293924       0.00000000
Si      -0.81075330      -2.63042775       2.60366065       0.00000000
