10
Lattice="16.28999089631971 0.0 0.0 0.0 16.28999089631971 0.0 0.0 0.0 34.31420841018396" Properties=species:S:1:pos:R:3:initial_magmoms:R:1 pbc="T T T"
Si       1.83472056      -0.05779692       1.45715367       0.00000000
Si       0.67917897      -1.35307998      -1.79816847       0.00000000
Si      -1.39079133      -1.32965496       1.51257115       0.00000000
Si       0.01853802       2.16601614      -1.41209909       0.00000000
Si       0.84929544       1.83469383       2.55119419       0.00000000
Si       3.60014606       0.28276182      -0.09494747       0.00000000
Si      -0.53265042      -3.50648766       0.75999151       0.00000000
Si       2.88003683      -0.62954334      -2.13365867       0.00000000
Si      -0.56136969      -0.53936190      -3.59928796       0.00000000
Si      -1.54181592       1.48460544      -3.03667188       0.00000000
