10
Lattice="16.28999089631971 0.0 0.0 0.0 16.28999089631971 0.0 0.0 0.0 34.31420841018396" Properties=species:S:1:pos:R:3:initial_magmoms:R:1 pbc="T T T"
Si      -2.24933949      -0.05927931      -0.56230725       0.00000000
Si       1.39079133       1.32965496      -1.51257115       0.00000000
Si       0.85814091      -2.17683270      -0.75257964       0.00000000
Si      -0.37203102       0.89497260       2.32060258       0.00000000
Si       3.22551189       1.27185804      -0.05541748       0.00000000
Si       2.65189797      -2.46332493       0.81070794       0.00000000
Si      -2.78326053       2.04077862      -1.48062461       0.00000000
Si       2.06997030      -0.02342502      -3.31073962       0.00000000
Si       1.50412086       2.09456820       2.99347027       0.00000000
Si       3.62363624      -0.40772241       1.58741048       0.00000000
