10
Lattice="16.28999089631971 0.0 0.0 0.0 16.28999089631971 0.0 0.0 0.0 34.31420841018396" Properties=species:S:1:pos:R:3:initial_magmoms:R:1 pbc="T T T"
Si       1.35568638       1.35708732      -1.35709339       0.00000000
Si      -1.35682668       1.35711990       1.35753947       0.00000000
Si       1.35755973      -1.35778779       1.35651004       0.00000000
Si      -1.35669636      -1.35920502      -1.35726496       0.00000000
Si       2.71329498      -0.00319284       2.71507894       0.00000000
Si      -0.00057015      -2.71505430       2.71380932       0.00000000
Si       0.00332316       2.71415835      -2.71487306       0.00000000
Si      -2.71454931      -2.71490769       0.00030883       0.00000000
Si      -2.71495656       2.71521720      -0.00037746       0.00000000
Si       2.71497285       2.71523349       0.00024020       0.00000000
