10
Lattice="16.28999089631971 0.0 0.0 0.0 16.28999089631971 0.0 0.0 0.0 34.31420841018396" Properties=species:S:1:pos:R:3:initial_magmoms:R:1 pbc="T T T"
Si       1.35720135       1.35735644      -1.35822576       0.00000000
Si      -1.35765747      -1.35783666      -1.35774536       0.00000000
Si      -1.35581670       1.35749457       1.36007872       0.00000000
Si       1.35705474      -1.35718506       1.35970127       0.00000000
Si       0.00443088       2.69420214       2.73319686       0.00000000
Si       2.71414206       0.00027693      -2.71504463       0.00000000
Si       2.71520091       2.71484646      -0.00099511       0.00000000
Si       0.00008145       2.71444084      -2.71576523       0.00000000
Si      -0.00083079      -2.71495656      -2.71528483       0.00000000
Si       2.71246419      -2.71814940      -0.00020589       0.00000000
