10
Lattice="16.28999089631971 0.0 0.0 0.0 16.28999089631971 0.0 0.0 0.0 34.31420841018396" Properties=species:S:1:pos:R:3:initial_magmoms:R:1 pbc="T T T"
Si       1.77859679       0.91119744      -1.28829336       0.00000000
Si      -0.88648551      -1.80095724      -1.31176429       0.00000000
Si       0.15367986      -1.07584047       2.14151663       0.00000000
Si      -1.94486310       1.42996878      -0.08667774       0.00000000
Si      -2.17212489      -1.57783311       2.03483370       0.00000000
Si       0.37975248       2.19726036      -2.69524532       0.00000000
Si      -2.34567855      -0.54113751      -2.69099036       0.00000000
Si      -1.10446200       3.35264490      -1.24093973       0.00000000
Si      -2.01111453      -3.15333675       0.24349376       0.00000000
Si      -3.29776389       0.59109894       1.93165081       0.00000000
