10
Lattice="16.28999089631971 0.0 0.0 0.0 16.28999089631971 0.0 0.0 0.0 34.31420841018396" Properties=species:S:1:pos:R:3:initial_magmoms:R:1 pbc="T T T"
Si       0.53949222       2.26109470       0.34331385       0.00000000
Si       0.17234820      -0.70214787       2.26590570       0.00000000
Si      -2.18989728       0.01969461      -1.01027949       0.00000000
Si       1.86052977      -0.91186533      -1.39054976       0.00000000
Si       1.15279443      -2.72611521       1.70328963       0.00000000
Si       2.86673049       1.93424202       0.35669640       0.00000000
Si      -2.73549825       2.35160585      -0.97212207       0.00000000
Si       2.79712332      -2.48508837       0.07881978       0.00000000
Si      -0.63423486       3.45984029      -1.36405918       0.00000000
Si      -1.97109000      -0.55698768       3.18202695       0.00000000
