10
Lattice="16.28999089631971 0.0 0.0 0.0 16.28999089631971 0.0 0.0 0.0 34.31420841018396" Properties=species:S:1:pos:R:3:initial_magmoms:R:1 pbc="T T T"
Si      -1.35324559      -1.34244261      -1.38444183       0.00000000
Si       1.36406433       1.37218815      -1.38619185       0.00000000
Si      -1.31078772       1.45272591       1.38674088       0.00000000
Si       1.19316594      -1.57752360       1.49688955       0.00000000
Si      -2.69800097      -2.70176166      -0.01060310       0.00000000
Si       2.70787530      -2.70622512      -0.01437766       0.00000000
Si       2.69419170       2.73277782      -0.03218675       0.00000000
Si       0.00364570      -2.70223407      -2.74304504       0.00000000
Si      -2.70963203       2.73878883      -0.02021108       0.00000000
Si      -2.71240133       0.01133784      -2.74283915       0.00000000
