10
Lattice="16.28999089631971 0.0 0.0 0.0 16.28999089631971 0.0 0.0 0.0 34.31420841018396" Properties=species:S:1:pos:R:3:initial_magmoms:R:1 pbc="T T T"
Si      -0.72010922      -0.91230516      -2.03871120       0.00000000
Si       2.06855307      -1.10076417       0.26919512       0.00000000
Si       0.19943847       2.33225559       0.29098465       0.00000000
Si      -1.76542549      -0.34055874       1.55210114       0.00000000
Si       3.00182346       0.60168744       1.59784201       0.00000000
Si      -3.60014606      -0.28276182       0.09494747       0.00000000
Si      -0.69468868       2.63780712       2.42532961       0.00000000
Si      -2.92096709      -1.63584180      -1.70322100       0.00000000
Si       0.59525289      -2.76050340      -2.59058693       0.00000000
Si       2.69275329      -2.06764083      -1.79250662       0.00000000
