10
Lattice="16.28999089631971 0.0 0.0 0.0 16.28999089631971 0.0 0.0 0.0 34.31420841018396" Properties=species:S:1:pos:R:3:initial_magmoms:R:1 pbc="T T T"
Si      -1.50666210       1.18861614       1.36584351       0.00000000
Si       1.34389242       1.36801791      -1.37315245       0.00000000
Si      -1.37002158      -1.34635221      -1.37473090       0.00000000
Si       1.50019497      -1.27987272       1.46497732       0.00000000
Si       2.71586880      -2.68809109      -0.01039721       0.00000000
Si       2.70044217       0.00954594      -2.73546159       0.00000000
Si      -2.72857337       2.70813105      -0.02165228       0.00000000
Si       2.72043000       2.71650411       0.01420609       0.00000000
Si      -2.73750681      -2.70021411      -0.01660809       0.00000000
Si      -0.01602936      -2.70541714      -2.73498120       0.00000000
