10
Lattice="16.28999089631971 0.0 0.0 0.0 16.28999089631971 0.0 0.0 0.0 34.31420841018396" Properties=species:S:1:pos:R:3:initial_magmoms:R:1 pbc="T T T"
Si       1.68593355       0.82161873       1.38176532       0.00000000
Si      -0.54450954       1.39189905      -1.81192847       0.00000000
Si      -1.89961437      -0.21914937       1.40760393       0.00000000
Si       0.75991221      -2.18165454      -0.65358309       0.00000000
Si       2.63756277      -1.12904361       2.20091456       0.00000000
Si       1.01328687       3.19391514      -1.57076808       0.00000000
Si       0.75631212       2.71420722       2.49454140       0.00000000
Si      -3.55508792      -1.31970177       0.17177702       0.00000000
Si      -2.85276996       1.99573677      -1.52519879       0.00000000
Si       3.05357679      -2.27918277       0.15516894       0.00000000
