10
Lattice="16.28999089631971 0.0 0.0 0.0 16.28999089631971 0.0 0.0 0.0 34.31420841018396" Properties=species:S:1:pos:R:3:initial_magmoms:R:1 pbc="T T T"
Si      -1.60977747      -1.10459232      -1.25922921       0.00000000
Si       2.06905806      -0.09529650      -1.12025659       0.00000000
Si       0.47428335      -1.21585302       1.97677402       0.00000000
Si      -0.89953869       2.15202859       0.50277206       0.00000000
Si       3.48384456       0.27578970       0.73199110       0.00000000
Si      -3.30676316      -1.66485429       0.36863775       0.00000000
Si      -0.58686843      -3.02865309      -2.20719406       0.00000000
Si      -2.26711907       1.89037209       2.38981438       0.00000000
Si      -2.17273481       0.29012490      -3.16514435       0.00000000
Si       2.65522113      -0.69512688       2.72393201       0.00000000
