10
Lattice="10.86 0.0 0.0 0.0 10.86 0.0 0.0 0.0 10.86" Properties=species:S:1:pos:R:3:initial_magmoms:R:1 pbc="T T T"
Si       1.27048968       1.22814654      -1.10763312       0.00000000
Si      -1.27062000       1.13558676       1.66192752       0.00000000
Si      -1.44186048      -1.67465544      -1.34410962       0.00000000
Si       2.67121248       2.67128850       0.01664838       0.00000000
Si       2.67121248      -0.04371150      -2.69835162       0.00000000
Si      -0.04378752       2.67128850      -2.69835162       0.00000000
Si      -0.04378752       2.67128850       2.73164838       0.00000000
Si      -2.75878752       2.67128850       0.01664838       0.00000000
Si      -0.04378752      -2.75871150      -2.69835162       0.00000000
Si      -2.75878752      -0.04371150      -2.69835162       0.00000000
