10
Lattice="10.86 0.0 0.0 0.0 10.86 0.0 0.0 0.0 10.86" Properties=species:S:1:pos:R:3:initial_magmoms:R:1 pbc="T T T"
Si      -0.99797970       1.60495596      -1.43100048       0.00000000
Si       1.71702030      -1.11004404      -1.43100048       0.00000000
Si       1.71702030       1.60495596       1.28399952       0.00000000
Si      -2.39870250       0.16181400      -2.55528198       0.00000000
Si      -2.40913896       0.35590392       2.60111118       0.00000000
Si       0.21926340      -2.45922528       2.58040116       0.00000000
Si       0.21156366      -2.51886840      -2.55414168       0.00000000
Si      -2.35547970       2.96245596      -0.07350048       0.00000000
Si       3.07452030      -2.46754404      -0.07350048       0.00000000
Si       0.35952030       2.96245596       2.64149952       0.00000000
