10
Lattice="16.28999089631971 0.0 0.0 0.0 16.28999089631971 0.0 0.0 0.0 34.3005442915855" Properties=species:S:1:pos:R:3:initial_magmoms:R:1 pbc="T T T"
Si       0.00785178       2.32962868       0.32023006       0.00000000
Si       0.95280210      -0.33601383      -2.12601752       0.00000000
Si       1.43042490      -0.61191756       1.77611748       0.00000000
Si      -1.89061088      -1.51532838       0.22003811       0.00000000
Si      -1.78969270       2.38690758       1.82818573       0.00000000
Si      -0.17140338      -2.32168338      -2.67702178       0.00000000
Si      -0.02994102      -0.48330801       3.60588103       0.00000000
Si      -2.10003349       0.36981558       2.99056323       0.00000000
Si      -2.38481202      -1.94184945      -2.04424498       0.00000000
Si       3.14085861      -1.09550250      -1.76665052       0.00000000
