10
Lattice="16.28999089631971 0.0 0.0 0.0 16.28999089631971 0.0 0.0 0.0 34.3005442915855" Properties=species:S:1:pos:R:3:initial_magmoms:R:1 pbc="T T T"
Si       0.63592087      -1.14148917      -1.98854087       0.00000000
Si      -0.07928343      -1.49393961       1.85408266       0.00000000
Si      -2.16314000       1.07093785      -0.67918546       0.00000000
Si       2.19499605       1.21330593       0.64467909       0.00000000
Si      -0.98698571       0.53707708       3.18185747       0.00000000
Si       0.94626166       0.87560283      -3.15091836       0.00000000
Si       2.70601335      -1.99461276      -1.37322306       0.00000000
Si       3.59670168      -0.67315167       0.43626887       0.00000000
Si       1.11746956       3.01564457      -2.05738210       0.00000000
Si      -2.66840693       0.58315824      -2.93846067       0.00000000
