10
Lattice="16.28999089631971 0.0 0.0 0.0 16.28999089631971 0.0 0.0 0.0 34.3005442915855" Properties=species:S:1:pos:R:3:initial_magmoms:R:1 pbc="T T T"
Si       2.11222656       0.69379110      -0.58955808       0.00000000
Si      -1.40170563       1.88645760       0.20841022       0.00000000
Si      -0.89068833      -1.32146109      -1.80949192       0.00000000
Si       2.87463114      -0.88790274       1.02881110       0.00000000
Si       1.76603148       0.59473161       2.69996885       0.00000000
Si      -1.50925221      -2.00933892       2.24071861       0.00000000
Si      -1.24579404      -3.23532432      -0.56232344       0.00000000
Si       1.97633538       0.29815587      -2.89911792       0.00000000
Si       2.07018207       2.80306007       1.05354181       0.00000000
Si      -3.59670168       0.67315167      -0.43626887       0.00000000
