10
Lattice="16.28999089631971 0.0 0.0 0.0 16.28999089631971 0.0 0.0 0.0 34.3005442915855" Properties=species:S:1:pos:R:3:initial_magmoms:R:1 pbc="T T T"
Si       2.22728283       0.87542460      -0.61411729       0.00000000
Si      -0.48562119       2.49178356       0.02623993       0.00000000
Si       0.04204449      -2.10926897      -1.64309989       0.00000000
Si      -0.30415059      -2.20832846       1.64642705       0.00000000
Si       2.72075580       0.26751438       1.60200782       0.00000000
Si       0.93617001      -0.68057339       3.04029702       0.00000000
Si       1.35755973       2.89867518      -1.36042895       0.00000000
Si      -2.46845628       0.96550830      -2.41345625       0.00000000
Si      -2.07018207      -2.80306007      -1.05354181       0.00000000
Si      -3.47188770      -0.91660246      -0.84513158       0.00000000
