10
Lattice="16.28999089631971 0.0 0.0 0.0 16.28999089631971 0.0 0.0 0.0 34.3005442915855" Properties=species:S:1:pos:R:3:initial_magmoms:R:1 pbc="T T T"
Si       1.34990343       1.33867962       1.37836814       0.00000000
Si       1.35474156      -1.35858600      -1.35857672       0.00000000
Si      -1.35798327       1.35622395      -1.35837091       0.00000000
Si      -1.35619137      -1.35407367       1.38793800       0.00000000
Si      -0.09703953       2.66043393       2.75179700       0.00000000
Si      -2.71308321       2.71274112       0.00274405       0.00000000
Si       2.71282257       2.71559187       0.00353296       0.00000000
Si      -0.00128691       2.71414206      -2.71502680       0.00000000
Si       2.71397916      -0.00117288      -2.71526690       0.00000000
Si       2.71459818      -2.71590138       0.00188653       0.00000000
