10
Lattice="16.28999089631971 0.0 0.0 0.0 16.28999089631971 0.0 0.0 0.0 34.3005442915855" Properties=species:S:1:pos:R:3:initial_magmoms:R:1 pbc="T T T"
Si       0.65559105      -2.27906874      -0.15171139       0.00000000
Si       2.02647600       1.21547835       0.27889788       0.00000000
Si      -1.46476422      -0.61835211       1.82314355       0.00000000
Si      -1.42441389      -0.26184546      -2.17029955       0.00000000
Si      -1.38380292      -2.51872722      -1.32990145       0.00000000
Si       2.74703157       0.64361790      -1.94638547       0.00000000
Si      -1.96882569       1.50656436       2.53686967       0.00000000
Si      -2.43160830       2.59020774       0.39335886       0.00000000
Si      -3.21310313       1.08541899      -1.38159240       0.00000000
Si       1.18361511      -2.79515223       2.12951618       0.00000000
