10
Lattice="16.28999089631971 0.0 0.0 0.0 16.28999089631971 0.0 0.0 0.0 34.3005442915855" Properties=species:S:1:pos:R:3:initial_magmoms:R:1 pbc="T T T"
Si       0.86972310      -2.02325058       0.74631166       0.00000000
Si      -1.84318092      -0.40689162       1.38666888       0.00000000
Si       1.54109916       1.84067226      -0.13655054       0.00000000
Si      -0.70558506      -0.09378153      -2.30167071       0.00000000
Si      -1.35755973      -2.89867518       1.36042895       0.00000000
Si      -1.71250254       2.02802355      -2.57151324       0.00000000
Si      -3.84215940       0.04170240       0.21235479       0.00000000
Si       2.35478466      -2.91522582      -0.89922357       0.00000000
Si       2.87744931       2.12618709       1.73516260       0.00000000
Si      -2.33901594       0.87255756       3.26040648       0.00000000
