10
Lattice="16.28999089631971 0.0 0.0 0.0 16.28999089631971 0.0 0.0 0.0 34.3005442915855" Properties=species:S:1:pos:R:3:initial_magmoms:R:1 pbc="T T T"
Si      -0.49583502       1.27944918       1.87373761       0.00000000
Si       1.84318092       0.40689162      -1.38666888       0.00000000
Si      -1.99897848       0.44859402      -1.17431409       0.00000000
Si       0.48562119      -2.49178356      -0.02623993       0.00000000
Si       2.71290402      -1.61635896      -0.64035722       0.00000000
Si      -1.57856616      -0.68927877       2.89582305       0.00000000
Si      -1.98283509      -1.52627526      -2.43969618       0.00000000
Si      -1.68614532       2.52307665      -2.37178106       0.00000000
Si       1.13759586       0.31311009      -3.68833959       0.00000000
Si      -3.16012968      -2.10919662       1.20274926       0.00000000
