10
Lattice="16.28999089631971 0.0 0.0 0.0 16.28999089631971 0.0 0.0 0.0 34.3005442915855" Properties=species:S:1:pos:R:3:initial_magmoms:R:1 pbc="T T T"
Si       1.01805984       2.10154032       0.63044436       0.00000000
Si      -2.17320003       0.86947875      -0.77008195       0.00000000
Si       1.43811378      -0.53116803      -2.18292216       0.00000000
Si       0.53540343      -2.53550592      -0.82232171       0.00000000
Si      -0.59699592       0.93415005       2.65208527       0.00000000
Si       2.61910620       1.26092745      -0.84235324       0.00000000
Si       2.47831173      -1.27571877       1.80050518       0.00000000
Si      -2.16728676      -1.23274575       2.20761856       0.00000000
Si      -0.98702739       2.43167346      -2.30849652       0.00000000
Si       1.66575024       0.40896045       3.33500948       0.00000000
