10
Lattice="16.28999089631971 0.0 0.0 0.0 16.28999089631971 0.0 0.0 0.0 34.3005442915855" Properties=species:S:1:pos:R:3:initial_magmoms:R:1 pbc="T T T"
Si      -0.14335200       0.58187880       2.25159189       0.00000000
Si       0.31675905       2.07966285      -1.02061327       0.00000000
Si      -2.22593076      -0.70586199      -0.32890810       0.00000000
Si       0.55227987      -2.09122875      -1.06342037       0.00000000
Si      -1.58728131      -2.99719710      -0.57686688       0.00000000
Si      -2.99550294       0.85348197      -1.93098452       0.00000000
Si      -1.87129746       2.83915152      -1.37998027       0.00000000
Si      -0.95874795      -1.25182134       3.39630459       0.00000000
Si       2.02426056       1.07733915       3.00524387       0.00000000
Si       1.31487993       1.71838323      -3.15678376       0.00000000
