10
Lattice="16.28999089631971 0.0 0.0 0.0 16.28999089631971 0.0 0.0 0.0 34.3005442915855" Properties=species:S:1:pos:R:3:initial_magmoms:R:1 pbc="T T T"
Si      -1.13015133      -1.36572102      -1.55264043       0.00000000
Si       1.04935293      -1.59956397       1.39611868       0.00000000
Si      -1.67791887       1.12611141       1.36632521       0.00000000
Si       1.94062770       0.69074487      -1.46297875       0.00000000
Si       2.39855589      -0.24454548       2.76108217       0.00000000
Si      -0.67650741      -0.19582209      -3.64236796       0.00000000
Si      -0.31767129       2.46909159       2.75898983       0.00000000
Si       2.66597253       2.60521083      -0.08092532       0.00000000
Si      -0.31255623       2.22244470      -3.08649302       0.00000000
Si       2.45164500      -2.93141808       0.00507991       0.00000000
