10
Lattice="16.28999089631971 0.0 0.0 0.0 16.28999089631971 0.0 0.0 0.0 34.3005442915855" Properties=species:S:1:pos:R:3:initial_magmoms:R:1 pbc="T T T"
Si       1.35772263       1.35651717      -1.35720470       0.00000000
Si      -1.35684297      -1.35842310      -1.35682739       0.00000000
Si      -1.35752715       1.35713619       1.35775350       0.00000000
Si       1.35772263      -1.35770634       1.35741050       0.00000000
Si      -2.71467963      -0.00135207       2.71375768       0.00000000
Si      -0.00195480      -2.71635750      -2.71217985       0.00000000
Si       2.71549413       0.00260640       2.71334607       0.00000000
Si      -2.71469592       2.71479366      -0.00003430       0.00000000
Si       2.71467963      -2.71482624       0.00044591       0.00000000
Si      -0.00048870       2.71282257       2.71670753       0.00000000
