10
Lattice="16.28999089631971 0.0 0.0 0.0 16.28999089631971 0.0 0.0 0.0 34.3005442915855" Properties=species:S:1:pos:R:3:initial_magmoms:R:1 pbc="T T T"
Si      -1.69720623      -1.23854499       1.18314104       0.00000000
Si       1.24032060       1.52775506       1.39386998       0.00000000
Si       1.10859966      -1.48263435      -1.67115775       0.00000000
Si       0.30415059       2.20832846      -1.64642705       0.00000000
Si      -1.76603148      -0.59473161      -2.69996885       0.00000000
Si       0.34619508       0.09905949      -3.28952694       0.00000000
Si       2.47937058       0.11701744       2.80275876       0.00000000
Si      -0.25676298      -2.57896764       2.78166049       0.00000000
Si       3.02490639       2.47584284      -0.04441923       0.00000000
Si      -0.25182711       2.83779035       2.78937468       0.00000000
