10
Lattice="16.28999089631971 0.0 0.0 0.0 16.28999089631971 0.0 0.0 0.0 34.3005442915855" Properties=species:S:1:pos:R:3:initial_magmoms:R:1 pbc="T T T"
Si       1.35738054      -1.35264835       1.36049755       0.00000000
Si      -1.34179101      -1.35822029      -1.37194365       0.00000000
Si      -1.35829278       1.36240600       1.35806221       0.00000000
Si       1.36700793       1.35558049      -1.36548142       0.00000000
Si      -2.58084099       0.05251733      -2.78083243       0.00000000
Si       2.71194291      -2.70951474       0.00435617       0.00000000
Si      -0.00149868      -2.71000344       2.71698193       0.00000000
Si      -2.71767699      -2.71122519      -0.00037731       0.00000000
Si       2.71363707       0.00460844       2.71687903       0.00000000
Si       2.71774215       2.71542082      -0.00072031       0.00000000
