10
Lattice="16.28999089631971 0.0 0.0 0.0 16.28999089631971 0.0 0.0 0.0 34.3005442915855" Properties=species:S:1:pos:R:3:initial_magmoms:R:1 pbc="T T T"
Si       1.79754448      -0.05727890      -1.50795567       0.00000000
Si      -0.31034079      -2.01709200       1.16237749       0.00000000
Si      -1.86162024       0.02642238      -1.44690067       0.00000000
Si       0.17120790       2.14004173       1.09353626       0.00000000
Si      -0.91824124       1.93317502      -2.58012268       0.00000000
Si      -0.94626166      -0.87560283       3.15091836       0.00000000
Si      -0.67542575       3.32284235      -0.73941725       0.00000000
Si       1.78969270      -2.38690758      -1.82818573       0.00000000
Si      -3.61466859      -0.29244460       0.21245769       0.00000000
Si       1.15021246       1.25266027      -3.36642880       0.00000000
