10
Lattice="16.28999089631971 0.0 0.0 0.0 16.28999089631971 0.0 0.0 0.0 34.3005442915855" Properties=species:S:1:pos:R:3:initial_magmoms:R:1 pbc="T T T"
Si      -1.35277047       1.35791585      -1.36279569       0.00000000
Si      -1.36321236      -1.37141568       1.34595411       0.00000000
Si       1.36236528      -1.35748773      -1.36269279       0.00000000
Si       1.36498797       1.38037976       1.35308863       0.00000000
Si      -2.71073745       2.71475882      -0.00257254       0.00000000
Si      -2.70751203      -2.71819143      -0.00908965       0.00000000
Si       2.71500543      -2.71407006      -0.00116622       0.00000000
Si      -2.71117728      -0.00092101      -2.71962308       0.00000000
Si       2.71637379       2.71661588      -0.00631130       0.00000000
Si      -0.02658528      -2.69698185       2.73612165       0.00000000
