10
Lattice="16.28999089631971 0.0 0.0 0.0 16.28999089631971 0.0 0.0 0.0 34.3005442915855" Properties=species:S:1:pos:R:3:initial_magmoms:R:1 pbc="T T T"
Si       0.45150993      -1.44902808      -1.75999621       0.00000000
Si      -0.85996539      -1.08203067       1.89071566       0.00000000
Si      -1.95714576       1.18555362      -0.58129165       0.00000000
Si       2.13640092       1.00528848       0.39452508       0.00000000
Si      -1.34247519       1.09020825       2.88419718       0.00000000
Si      -1.32172173       2.37127014      -2.43064083       0.00000000
Si      -2.30793462       2.55261042       1.27347702       0.00000000
Si       2.02123062      -2.97698935      -0.85322652       0.00000000
Si       2.71598283       2.08757979      -1.59586802       0.00000000
Si      -1.40849856      -2.84829347      -2.10903875       0.00000000
