10
Lattice="16.28999089631971 0.0 0.0 0.0 16.28999089631971 0.0 0.0 0.0 34.3005442915855" Properties=species:S:1:pos:R:3:initial_magmoms:R:1 pbc="T T T"
Si       0.85996539       1.08203067      -1.89071566       0.00000000
Si      -1.83151728      -1.40097095      -0.56729702       0.00000000
Si       1.63172043      -1.52349130       0.80969910       0.00000000
Si      -0.48250980       2.17223892       0.99348152       0.00000000
Si      -1.09718037       2.26758429      -2.47200731       0.00000000
Si       1.61033166       2.95653726       1.65832934       0.00000000
Si      -3.46390560      -1.10208855       1.09799534       0.00000000
Si       3.52318491      -0.40681017       1.41959742       0.00000000
Si       0.96044211      -2.47043231       2.81906041       0.00000000
Si      -1.13528268      -3.67174061      -0.46285180       0.00000000
