10
Lattice="16.28999089631971 0.0 0.0 0.0 16.28999089631971 0.0 0.0 0.0 34.3005442915855" Properties=species:S:1:pos:R:3:initial_magmoms:R:1 pbc="T T T"
Si       1.43583318       1.03954635       1.55011106       0.00000000
Si      -0.83041533       1.85042997      -1.25931089       0.00000000
Si       1.08243792      -1.51291746      -1.49804281       0.00000000
Si      -1.40253642      -1.51295004       1.23831894       0.00000000
Si       3.24112356      -0.20157246       0.72233557       0.00000000
Si      -0.80902656      -2.62959859      -2.10794113       0.00000000
Si      -2.92325679       1.06613163      -1.92415871       0.00000000
Si      -0.13146030      -1.77331311       3.30328146       0.00000000
Si       3.45738960       0.34896438      -1.61936390       0.00000000
Si       1.37466423       3.45416418       0.98377446       0.00000000
