10
Lattice="16.28999089631971 0.0 0.0 0.0 16.28999089631971 0.0 0.0 0.0 34.3005442915855" Properties=species:S:1:pos:R:3:initial_magmoms:R:1 pbc="T T T"
Si       1.34069958       1.36897902      -1.38852111       0.00000000
Si      -1.37472939      -1.34465805      -1.38704619       0.00000000
Si      -1.25077878       1.43027829       1.45111964       0.00000000
Si       1.46315151      -1.41475392       1.54654381       0.00000000
Si       2.70099603      -2.67903711      -0.03138502       0.00000000
Si       2.68943013       2.72290608      -0.01269121       0.00000000
Si      -2.74325229      -2.68910596      -0.00915825       0.00000000
Si       2.69799867       0.01265733      -2.74737223       0.00000000
Si      -0.01676241      -2.70150102      -2.74726933       0.00000000
Si      -2.73942414       2.70992295      -0.01056457       0.00000000
