10
Lattice="16.28999089631971 0.0 0.0 0.0 16.28999089631971 0.0 0.0 0.0 34.3005442915855" Properties=species:S:1:pos:R:3:initial_magmoms:R:1 pbc="T T T"
Si      -1.14663681      -1.51544241      -1.48723813       0.00000000
Si       1.35663120       1.28774079      -1.54105572       0.00000000
Si      -0.96431913       1.15312023       1.91177621       0.00000000
Si       1.80978642      -1.10281671       1.35031028       0.00000000
Si       3.48794964       0.71482149       1.18364384       0.00000000
Si       2.75258646       2.69273700      -0.06143231       0.00000000
Si       2.84130180      -2.71018196      -0.14269034       0.00000000
Si      -2.60978832      -0.10068849      -3.03378194       0.00000000
Si       0.07964181       2.62221759      -3.04647314       0.00000000
Si      -2.22122295      -0.22849983       3.37915431       0.00000000
