10
Lattice="16.28999089631971 0.0 0.0 0.0 16.28999089631971 0.0 0.0 0.0 34.3005442915855" Properties=species:S:1:pos:R:3:initial_magmoms:R:1 pbc="T T T"
Si      -0.32228136       2.32613055      -0.37692889       0.00000000
Si      -2.12459067      -0.80529615       0.81306056       0.00000000
Si       1.66640184      -0.01143558       1.84722254       0.00000000
Si      -0.23690547      -0.41524839      -2.92731299       0.00000000
Si       1.78106715      -2.37649923      -0.89078563       0.00000000
Si       3.29051484      -1.22991129       0.56156882       0.00000000
Si      -1.33854930      -2.89126323       1.64690725       0.00000000
Si       1.91410758       3.00662901      -1.20117143       0.00000000
Si      -3.01105989      -2.04659415      -1.03429919       0.00000000
Si       0.52416333      -3.75811929       0.57659247       0.00000000
