10
Lattice="16.28999089631971 0.0 0.0 0.0 16.28999089631971 0.0 0.0 0.0 34.3005442915855" Properties=species:S:1:pos:R:3:initial_magmoms:R:1 pbc="T T T"
Si       1.35324288       1.34890974      -1.36945000       0.00000000
Si      -1.35972630      -1.36277253      -1.36842098       0.00000000
Si       1.34695494      -1.33941267       1.43671340       0.00000000
Si      -1.48129857       1.25138151       1.49296633       0.00000000
Si      -0.35572473      -2.23454817       2.92600957       0.00000000
Si      -2.38400892      -0.75295638       2.85356678       0.00000000
Si      -2.71073745       2.70081684      -0.00270974       0.00000000
Si       2.71775844       2.70972747       0.00257254       0.00000000
Si       2.70620883      -2.72670165       0.00428757       0.00000000
Si      -0.00074934       2.71060713      -2.73142247       0.00000000
