10
Lattice="16.28999089631971 0.0 0.0 0.0 16.28999089631971 0.0 0.0 0.0 34.3005442915855" Properties=species:S:1:pos:R:3:initial_magmoms:R:1 pbc="T T T"
Si      -0.26006985      -0.53713017       2.29336997       0.00000000
Si       1.35376416       1.92432141      -0.31614829       0.00000000
Si       0.81256149      -1.68467922      -1.53450431       0.00000000
Si      -2.26274616       0.52518960      -0.68292422       0.00000000
Si      -0.64769040       1.69257987      -2.70456513       0.00000000
Si      -1.05518475       1.57654620       2.93503061       0.00000000
Si      -2.77353540       1.80445959       1.34159794       0.00000000
Si       3.08278476       1.37775933       1.21214761       0.00000000
Si       2.42492940       1.32952464      -2.29529081       0.00000000
Si      -1.66575024      -0.40896045      -3.33500948       0.00000000
