10
Lattice="16.28999089631971 0.0 0.0 0.0 16.28999089631971 0.0 0.0 0.0 34.3005442915855" Properties=species:S:1:pos:R:3:initial_magmoms:R:1 pbc="T T T"
Si       0.25642089      -2.16860625       0.82379663       0.00000000
Si       1.97346834       0.42753105      -1.20768854       0.00000000
Si      -1.84156821       0.48516507      -1.40632310       0.00000000
Si       0.22343364       1.38627900       1.93170483       0.00000000
Si      -1.57281579      -2.49728958       2.27618539       0.00000000
Si       2.60428230       1.49802840       2.24953385       0.00000000
Si       1.50128640       2.40005457      -2.48754546       0.00000000
Si      -2.63668311       2.59884144      -0.76466246       0.00000000
Si       2.20556826      -2.27706507       2.15129704       0.00000000
Si      -3.39928317      -1.21077054       1.32870093       0.00000000
