10
Lattice="16.28999089631971 0.0 0.0 0.0 16.28999089631971 0.0 0.0 0.0 34.3005442915855" Properties=species:S:1:pos:R:3:initial_magmoms:R:1 pbc="T T T"
Si       1.34692236       1.36088289       1.37212201       0.00000000
Si      -1.36647036      -1.35446463       1.36948087       0.00000000
Si      -1.09905372       1.49529168      -1.47252662       0.00000000
Si       1.35742941      -1.41284799      -1.41386923       0.00000000
Si      -1.82439855      -0.41917428      -2.85458005       0.00000000
Si       2.47529808       0.22351509      -2.64234699       0.00000000
Si       0.88659954       2.28030678      -2.78127975       0.00000000
Si      -0.24511563      -2.45777004      -2.83080976       0.00000000
Si      -2.70681156       2.71217734      -0.00417781       0.00000000
Si      -2.71567332      -2.70948312       0.00451738       0.00000000
