10
Lattice="16.28999089631971 0.0 0.0 0.0 16.28999089631971 0.0 0.0 0.0 34.3005442915855" Properties=species:S:1:pos:R:3:initial_magmoms:R:1 pbc="T T T"
Si       0.41653530      -0.50191119       2.24534918       0.00000000
Si      -0.88397685       2.18338521      -0.19613062       0.00000000
Si      -1.80152739      -1.53863937      -0.15250031       0.00000000
Si       2.27061423       0.50531580      -0.70278424       0.00000000
Si       2.54575233       2.05468932       1.05968161       0.00000000
Si       2.33644212      -1.73742624      -1.87538331       0.00000000
Si      -2.79964827      -1.17735975       1.98367019       0.00000000
Si      -1.71338220       2.17113024      -2.36372043       0.00000000
Si       0.60742152      -1.19086416      -3.40367921       0.00000000
Si       0.12028536       1.15373925      -3.47186873       0.00000000
