10
Lattice="16.28999089631971 0.0 0.0 0.0 16.28999089631971 0.0 0.0 0.0 34.3005442915855" Properties=species:S:1:pos:R:3:initial_magmoms:R:1 pbc="T T T"
Si       1.64600676       1.40090742       0.77286030       0.00000000
Si      -1.88726166       0.77981859       1.09542279       0.00000000
Si      -0.41653530       0.50191119      -2.24534918       0.00000000
Si       0.64205406      -2.24929062       0.29851780       0.00000000
Si      -3.21618357      -0.67544856      -0.26167900       0.00000000
Si      -2.21806269      -1.03672818      -2.39784949       0.00000000
Si       2.12921703       2.55660051      -1.18566758       0.00000000
Si       1.85407893       1.00722699      -2.94813343       0.00000000
Si       3.02290272      -2.13754122       0.61634682       0.00000000
Si      -1.48812408       0.62550342       3.40786388       0.00000000
