10
Lattice="16.28999089631971 0.0 0.0 0.0 16.28999089631971 0.0 0.0 0.0 34.3005442915855" Properties=species:S:1:pos:R:3:initial_magmoms:R:1 pbc="T T T"
Si      -1.35589815      -1.35738716       1.35758200       0.00000000
Si       1.35679410       1.35675883       1.35741050       0.00000000
Si      -1.35729909       1.35670344      -1.35710179       0.00000000
Si       1.35769005      -1.35776183      -1.35689599       0.00000000
Si      -2.71355562      -0.00055335      -2.71348327       0.00000000
Si       0.00026064       2.71432182      -2.71296877       0.00000000
Si      -0.00004887      -2.71359482      -2.71379198       0.00000000
Si       2.71496644       2.71428924       0.00027440       0.00000000
Si      -2.71461447       2.71474536       0.00048021       0.00000000
Si       2.71539639       0.00075311      -2.71434079       0.00000000
