10
Lattice="16.28999089631971 0.0 0.0 0.0 16.28999089631971 0.0 0.0 0.0 34.3005442915855" Properties=species:S:1:pos:R:3:initial_magmoms:R:1 pbc="T T T"
Si       1.35786924      -1.35493526       1.35789071       0.00000000
Si      -1.35679410      -1.35675883      -1.35741050       0.00000000
Si       1.35817234       1.35753041      -1.35713609       0.00000000
Si      -1.35868374       1.35995762       1.35655298       0.00000000
Si       2.70504965       0.00074445       2.71389488       0.00000000
Si      -2.71006956       0.02372150       2.71595292       0.00000000
Si      -2.71269225      -2.71414599       0.00017150       0.00000000
Si      -2.71306692       2.71541594      -0.00003430       0.00000000
Si      -2.71409319      -0.00005539      -2.71451229       0.00000000
Si       0.00089595      -2.71452066      -2.71430649       0.00000000
