10
Lattice="16.28999089631971 0.0 0.0 0.0 16.28999089631971 0.0 0.0 0.0 34.3005442915855" Properties=species:S:1:pos:R:3:initial_magmoms:R:1 pbc="T T T"
Si       1.38306987      -1.22409152       1.40632310       0.00000000
Si       1.35138582       1.33623612      -1.35939993       0.00000000
Si      -1.36498797      -1.38037976      -1.35308863       0.00000000
Si      -1.23784452       1.26428319       1.57792882       0.00000000
Si      -0.43222257      -2.24118539       2.47200731       0.00000000
Si      -2.25346086      -0.62204831       2.66707461       0.00000000
Si      -2.70099603       2.67903711       0.03138502       0.00000000
Si       2.69254152       2.70314631       0.01567536       0.00000000
Si      -0.00299736       2.69169444      -2.71598722       0.00000000
Si       2.71006956      -0.02372150      -2.71595292       0.00000000
