10
Lattice="16.28999089631971 0.0 0.0 0.0 16.28999089631971 0.0 0.0 0.0 34.3005442915855" Properties=species:S:1:pos:R:3:initial_magmoms:R:1 pbc="T T T"
Si      -0.53814015       2.18773071      -0.53217324       0.00000000
Si       2.32167265       0.22317300      -0.26281092       0.00000000
Si      -0.21626604      -0.55053684       2.34169947       0.00000000
Si      -1.38924378      -0.90673398      -1.77831271       0.00000000
Si      -2.37495168      -1.86188184       0.12132109       0.00000000
Si       2.07885717      -1.16649432      -2.10351635       0.00000000
Si       1.13547816      -3.07324697      -0.97029434       0.00000000
Si      -0.61757019      -3.39211394       0.68906402       0.00000000
Si       1.83007026       0.28906605       3.08255734       0.00000000
Si       0.60364224       2.38264056      -2.63788483       0.00000000
