10
Lattice="16.28999089631971 0.0 0.0 0.0 16.28999089631971 0.0 0.0 0.0 34.3005442915855" Properties=species:S:1:pos:R:3:initial_magmoms:R:1 pbc="T T T"
Si      -1.34566803      -1.35290079      -1.37550062       0.00000000
Si       1.35731538      -1.35505107       1.36228118       0.00000000
Si      -1.35767376       1.36228383       1.36066905       0.00000000
Si       1.36010097       1.37347506      -1.39251713       0.00000000
Si      -2.65261473       0.03202614      -2.75893838       0.00000000
Si       2.71260007      -2.70949941       0.00637990       0.00000000
Si      -2.71191033      -2.71585251       0.00109762       0.00000000
Si      -0.00094482      -2.71114470       2.71886846       0.00000000
Si       2.71359702       2.71653669      -0.00051451       0.00000000
Si       2.71391956       0.00320913       2.71897136       0.00000000
