10
Lattice="16.28999089631971 0.0 0.0 0.0 16.28999089631971 0.0 0.0 0.0 34.3005442915855" Properties=species:S:1:pos:R:3:initial_magmoms:R:1 pbc="T T T"
Si      -1.21618859       1.38047976      -1.41308031       0.00000000
Si      -1.39104057      -1.33851672       1.42741795       0.00000000
Si       1.52238195      -1.32924771      -1.37648161       0.00000000
Si       0.85592547       1.98568584       1.24706559       0.00000000
Si      -2.58650081      -2.69301393      -0.05031893       0.00000000
Si      -2.55683672       2.72202642       0.00322425       0.00000000
Si      -2.55497966       0.02723688      -2.76627184       0.00000000
Si       0.16474077      -2.69355150      -2.76318479       0.00000000
Si       2.78153379       2.68525989      -0.01262261       0.00000000
Si       0.16549011       2.73756708      -2.76167557       0.00000000
