10
Lattice="16.28999089631971 0.0 0.0 0.0 16.28999089631971 0.0 0.0 0.0 34.3005442915855" Properties=species:S:1:pos:R:3:initial_magmoms:R:1 pbc="T T T"
Si       0.81241488      -1.12428693      -1.97166499       0.00000000
Si      -0.83201175       2.05042230       0.97969269       0.00000000
Si       2.27415423       0.58130865       0.72641733       0.00000000
Si      -1.39504302      -1.51731576       1.45389798       0.00000000
Si      -1.65796362       1.51886331      -2.16251332       0.00000000
Si       1.54777806      -3.10220244      -0.72658884       0.00000000
Si       1.03382856       3.48097752       0.57937082       0.00000000
Si      -1.42337133       1.37613033       3.17966223       0.00000000
Si       0.19054413      -3.06563139       2.17712536       0.00000000
Si      -2.77145028       2.71922454      -0.30884227       0.00000000
