10
Lattice="16.28999089631971 0.0 0.0 0.0 16.28999089631971 0.0 0.0 0.0 34.3005442915855" Properties=species:S:1:pos:R:3:initial_magmoms:R:1 pbc="T T T"
Si      -1.58558715       1.54831563      -0.72322738       0.00000000
Si      -1.32735807      -0.92872548       1.72737638       0.00000000
Si       1.56437757       1.33419987       1.23732423       0.00000000
Si       1.35723393      -0.03657105      -2.90371420       0.00000000
Si      -0.32092929      -1.85420925      -2.73704776       0.00000000
Si       0.21678732      -2.13982182       2.98740757       0.00000000
Si       0.58251411      -3.60243902      -0.84485718       0.00000000
Si      -0.19054413       3.06563139      -2.17712536       0.00000000
Si      -3.09503484       0.40172769      -2.17558184       0.00000000
Si       1.50285024      -3.23952714       1.33912830       0.00000000
