10
Lattice="16.28999089631971 0.0 0.0 0.0 16.28999089631971 0.0 0.0 0.0 34.3005442915855" Properties=species:S:1:pos:R:3:initial_magmoms:R:1 pbc="T T T"
Si      -0.44727453      -1.40458896      -1.84526741       0.00000000
Si       1.82937248      -0.89052543       1.30986992       0.00000000
Si      -1.99185975      -0.48711987       1.29004419       0.00000000
Si       0.31708485       2.16484326      -1.09607451       0.00000000
Si       3.77075123      -0.12442302       0.05227406       0.00000000
Si       0.09086562      -3.59231967      -1.31309417       0.00000000
Si      -1.77626160       2.70692559      -2.11521285       0.00000000
Si       1.29507129      -0.09125658       3.65270130       0.00000000
Si      -2.67916743      -1.23645987      -2.54475880       0.00000000
Si      -1.93069080      -2.90173770       1.85638080       0.00000000
