10
Lattice="16.28999089631971 0.0 0.0 0.0 16.28999089631971 0.0 0.0 0.0 34.3005442915855" Properties=species:S:1:pos:R:3:initial_magmoms:R:1 pbc="T T T"
Si      -1.12544352       0.42868764       2.00586265       0.00000000
Si      -1.75625748      -0.64180971      -1.45135974       0.00000000
Si       1.03594626       1.60091604      -1.43201422       0.00000000
Si       2.13905619      -0.94794768       0.54860321       0.00000000
Si       2.71629234      -1.76350653      -1.61528213       0.00000000
Si       3.39979046       1.04443335       0.85024237       0.00000000
Si      -0.54799560       2.68240914       2.51543182       0.00000000
Si       2.32445268       0.24581610      -2.94868224       0.00000000
Si      -2.22843942       1.33071381      -2.73121667       0.00000000
Si      -0.91419480      -2.39432049      -2.81360662       0.00000000
