10
Lattice="16.28999089631971 0.0 0.0 0.0 16.28999089631971 0.0 0.0 0.0 34.3005442915855" Properties=species:S:1:pos:R:3:initial_magmoms:R:1 pbc="T T T"
Si       1.26073427       1.99238103       0.30163916       0.00000000
Si       0.57723615      -0.81555885      -2.16388535       0.00000000
Si      -2.13905619       0.94794768      -0.54860321       0.00000000
Si       0.66079149      -1.15631307       2.04026612       0.00000000
Si      -1.10310993       2.54886372      -1.98061744       0.00000000
Si      -1.11330747      -2.53746072      -2.31542524       0.00000000
Si       0.18539649       1.19376378      -3.49728545       0.00000000
Si       2.48672456       0.16431723       2.79779406       0.00000000
Si      -3.26449971       1.37663532       1.45725944       0.00000000
Si       3.47414291       1.61254710      -0.33113764       0.00000000
