10
Lattice="16.28999089631971 0.0 0.0 0.0 16.28999089631971 0.0 0.0 0.0 34.3005442915855" Properties=species:S:1:pos:R:3:initial_magmoms:R:1 pbc="T T T"
Si      -1.37779191       1.16670609      -1.61576234       0.00000000
Si       1.21876893       0.87291594       1.92971540       0.00000000
Si       1.71444105      -0.55886103      -1.68151652       0.00000000
Si      -1.96643106      -1.30642542       1.09916156       0.00000000
Si      -2.48427387      -0.77814072      -2.58955534       0.00000000
Si       2.13348501       1.51720173      -2.86471446       0.00000000
Si      -0.00625536       2.50447347      -3.00160801       0.00000000
Si      -0.37897056       1.82474064       3.46015341       0.00000000
Si      -3.62077830      -1.51892847      -0.58547632       0.00000000
Si       2.40215598      -1.02182283       3.04808527       0.00000000
