10
Lattice="16.28999089631971 0.0 0.0 0.0 16.28999089631971 0.0 0.0 0.0 34.3005442915855" Properties=species:S:1:pos:R:3:initial_magmoms:R:1 pbc="T T T"
Si      -1.51278714      -1.17113697      -1.28980374       0.00000000
Si      -1.29153636       1.33872673       1.37253362       0.00000000
Si       1.44021938      -1.39310451       1.33199378       0.00000000
Si       0.76600467       1.81600498      -1.40877357       0.00000000
Si       1.67370695      -0.21501171      -2.73654839       0.00000000
Si      -3.10148568       0.88565472      -1.42873650       0.00000000
Si       0.08495235      -2.12296167      -2.82024176       0.00000000
Si      -2.47775787       2.78920053      -0.07965620       0.00000000
Si       2.66041831       2.64395238      -0.08469495       0.00000000
Si      -2.64116286      -0.03376917       2.72466526       0.00000000
