10
Lattice="16.28999089631971 0.0 0.0 0.0 16.28999089631971 0.0 0.0 0.0 34.3005442915855" Properties=species:S:1:pos:R:3:initial_magmoms:R:1 pbc="T T T"
Si      -1.35773892      -1.35583299      -1.35689599       0.00000000
Si      -1.35769005       1.35776183       1.35689599       0.00000000
Si       1.35753076      -1.35777150       1.35754770       0.00000000
Si       1.35770634       1.35851493      -1.35744480       0.00000000
Si      -2.71358820       0.00037467       2.71447799       0.00000000
Si      -0.00089595       2.71452066       2.71430649       0.00000000
Si      -2.71668330       0.00034209      -2.71272866       0.00000000
Si      -2.71498914       2.71446527      -0.00020580       0.00000000
Si       2.71491325       2.71489533       0.00000000       0.00000000
Si       2.71492139      -2.71508688      -0.00044591       0.00000000
