10
Lattice="16.28999089631971 0.0 0.0 0.0 16.28999089631971 0.0 0.0 0.0 34.3005442915855" Properties=species:S:1:pos:R:3:initial_magmoms:R:1 pbc="T T T"
Si       1.35665110       1.35754344      -1.35809651       0.00000000
Si      -1.35842310      -1.35721764      -1.35771920       0.00000000
Si       1.35847347      -1.35995436       1.35857672       0.00000000
Si      -1.36182771       1.35910728       1.36036035       0.00000000
Si       2.71375992      -2.71389771      -0.00164643       0.00000000
Si       2.71404173       0.00022806      -2.71609012       0.00000000
Si      -2.71446786       2.71568961      -0.00116622       0.00000000
Si      -2.71595025      -2.71480995      -0.00120052       0.00000000
Si      -0.00066789      -2.71505430      -2.71585001       0.00000000
Si      -0.00087966       2.71531494      -2.71564421       0.00000000
