10
Lattice="16.28999089631971 0.0 0.0 0.0 16.28999089631971 0.0 0.0 0.0 34.3005442915855" Properties=species:S:1:pos:R:3:initial_magmoms:R:1 pbc="T T T"
Si      -1.35264015       1.35658233      -1.36152657       0.00000000
Si      -1.35003375      -1.35716877       1.37123363       0.00000000
Si       1.36182771      -1.35910728      -1.36036035       0.00000000
Si       1.35835794       1.36433637       1.38673748       0.00000000
Si       0.13756905      -2.51691903       2.85298367       0.00000000
Si      -2.71500543       2.71407006       0.00116622       0.00000000
Si      -2.71161711      -0.00161271      -2.71914287       0.00000000
Si      -2.71454931      -2.71798650      -0.00078891       0.00000000
Si       0.00325800       2.71396949      -2.71910857       0.00000000
Si       2.71792134       2.71579305      -0.00380736       0.00000000
