10
Lattice="16.28999089631971 0.0 0.0 0.0 16.28999089631971 0.0 0.0 0.0 34.3005442915855" Properties=species:S:1:pos:R:3:initial_magmoms:R:1 pbc="T T T"
Si       1.35956340       1.35145668      -1.39054484       0.00000000
Si      -1.35835794      -1.36433637      -1.38673748       0.00000000
Si       1.23639471      -1.27549071       1.64889669       0.00000000
Si      -1.32530553       1.50602192       1.37384047       0.00000000
Si       2.70674381       2.70713640      -0.03454067       0.00000000
Si       2.70677965      -2.71409319       0.00744322       0.00000000
Si      -2.70839169      -2.72150514      -0.01550385       0.00000000
Si      -2.70837540       2.73011345      -0.03248263       0.00000000
Si       0.00169416       2.70639195      -2.74843555       0.00000000
Si      -2.71099809      -0.00775404      -2.74826405       0.00000000
