10
Lattice="16.28999089631971 0.0 0.0 0.0 16.28999089631971 0.0 0.0 0.0 34.3005442915855" Properties=species:S:1:pos:R:3:initial_magmoms:R:1 pbc="T T T"
Si      -1.23639471       1.27549071      -1.64889669       0.00000000
Si       1.48765886       1.38657222       1.33501223       0.00000000
Si      -1.66288320      -0.97816563       1.74895143       0.00000000
Si       1.47038494      -1.43860248      -1.64145346       0.00000000
Si      -2.45718360      -2.60576469      -0.18265050       0.00000000
Si       2.70084032       2.50209513      -0.36746194       0.00000000
Si      -2.56170024       2.78151263      -0.27505622       0.00000000
Si      -2.59475265      -0.08884566      -3.03563417       0.00000000
Si       0.12316869       2.62694739      -3.03944153       0.00000000
Si       3.27213062       0.16923681       2.39685477       0.00000000
