10
Lattice="16.28999089631971 0.0 0.0 0.0 16.28999089631971 0.0 0.0 0.0 34.3005442915855" Properties=species:S:1:pos:R:3:initial_magmoms:R:1 pbc="T T T"
Si      -2.13974037       0.98727174      -0.13689355       0.00000000
Si       1.38924282       1.61611461       1.03549971       0.00000000
Si       1.59866543      -0.26902935      -1.73502540       0.00000000
Si      -0.41904396      -2.07606276       1.18319794       0.00000000
Si      -3.51127692      -0.35049564       1.24895212       0.00000000
Si       2.33045459      -2.52361422      -1.50315359       0.00000000
Si      -2.84332176       0.94242537      -2.33411904       0.00000000
Si       1.67182056      -2.79575496       2.04692043       0.00000000
Si      -1.91508498       3.34076202       0.08557991       0.00000000
Si      -2.13348501      -1.51720173       2.86471446       0.00000000
