10
Lattice="16.28999089631971 0.0 0.0 0.0 16.28999089631971 0.0 0.0 0.0 34.3005442915855" Properties=species:S:1:pos:R:3:initial_magmoms:R:1 pbc="T T T"
Si      -1.26023838       1.34369694       1.46007208       0.00000000
Si       2.01906568       0.63977346      -1.15850153       0.00000000
Si       0.85791448      -1.91801718       1.21856182       0.00000000
Si      -1.38398488      -0.16617429      -2.04520540       0.00000000
Si       2.03520907      -1.33509582      -2.42388362       0.00000000
Si       1.03177765      -3.21720658      -0.85555895       0.00000000
Si      -2.00984947       3.04582275      -0.16196726       0.00000000
Si      -1.47554828       2.24655390      -2.50479865       0.00000000
Si      -0.04574884      -1.41486795      -3.55762014       0.00000000
Si       2.43947800      -0.49809933       2.91163561       0.00000000
