10
Lattice="16.28999089631971 0.0 0.0 0.0 16.28999089631971 0.0 0.0 0.0 34.3005442915855" Properties=species:S:1:pos:R:3:initial_magmoms:R:1 pbc="T T T"
Si      -2.04633630      -0.83960289      -0.74085787       0.00000000
Si       1.33823604      -1.24869366      -1.51241474       0.00000000
Si      -0.09156340       2.41272819      -0.45959325       0.00000000
Si       1.38398488       0.16617429       2.04520540       0.00000000
Si       0.49160239      -0.06589305      -3.34536825       0.00000000
Si      -1.83007026      -0.28906605      -3.08255734       0.00000000
Si       3.40305056       0.80594775       0.88670387       0.00000000
Si       3.41919395      -1.16892153      -0.37867822       0.00000000
Si      -1.94237352      -3.19340038      -0.13421810       0.00000000
Si      -0.62586459       3.21199704       1.88323814       0.00000000
