10
Lattice="16.28999089631971 0.0 0.0 0.0 16.28999089631971 0.0 0.0 0.0 34.3005442915855" Properties=species:S:1:pos:R:3:initial_magmoms:R:1 pbc="T T T"
Si       1.34472321       1.35702216       1.39809097       0.00000000
Si      -1.37083445      -1.35817875       1.39747356       0.00000000
Si      -1.40486426       1.30013748      -1.53392463       0.00000000
Si       1.71634698      -1.17419949      -1.50222405       0.00000000
Si       2.70920619      -2.68760565       0.04990046       0.00000000
Si      -2.72433050      -2.70124038       0.00547094       0.00000000
Si       2.69798238       2.72979675       0.00676407       0.00000000
Si      -2.72075880       2.71515204       0.01149069       0.00000000
Si       2.70270648       0.00061902       2.75996054       0.00000000
Si      -0.01340667      -2.71334385       2.75999484       0.00000000
