10
Lattice="16.28999089631971 0.0 0.0 0.0 16.28999089631971 0.0 0.0 0.0 34.3005442915855" Properties=species:S:1:pos:R:3:initial_magmoms:R:1 pbc="T T T"
Si      -1.28259315       1.34635221       1.40357906       0.00000000
Si       1.33871220       1.35405738      -1.35483796       0.00000000
Si       1.24468632      -1.41467247       1.39987460       0.00000000
Si      -1.37135736      -1.36236528      -1.34917836       0.00000000
Si      -0.68092200      -2.11424652       2.65956279       0.00000000
Si      -2.41192998      -0.28888686       2.73814538       0.00000000
Si       2.69830818      -0.00263898      -2.70909280       0.00000000
Si       2.70353727       2.70407484       0.01732178       0.00000000
Si      -0.01664838       2.70990666      -2.71097933       0.00000000
Si       2.69162928      -2.73642678       0.02644573       0.00000000
