10
Lattice="16.28999089631971 0.0 0.0 0.0 16.28999089631971 0.0 0.0 0.0 34.3005442915855" Properties=species:S:1:pos:R:3:initial_magmoms:R:1 pbc="T T T"
Si      -1.75699053       0.11111409       1.52685528       0.00000000
Si       2.22593076       0.70586199       0.32890810       0.00000000
Si      -0.76957218       1.55934396      -1.60207642       0.00000000
Si       0.63864945      -2.29133511      -0.24795877       0.00000000
Si       2.77821063      -1.38536676      -0.73451227       0.00000000
Si       2.08257876       1.28774079       2.58049999       0.00000000
Si      -2.48877968       2.36569896       1.29498347       0.00000000
Si      -1.10960964      -3.10546044      -1.62416598       0.00000000
Si      -2.98298082       1.93917789      -0.96929962       0.00000000
Si       0.35463330       3.54501351      -1.05107217       0.00000000
