10
Lattice="16.28999089631971 0.0 0.0 0.0 16.28999089631971 0.0 0.0 0.0 34.3005442915855" Properties=species:S:1:pos:R:3:initial_magmoms:R:1 pbc="T T T"
Si       1.82593307       1.32063030       0.75752794       0.00000000
Si       0.82681035      -2.14203726      -0.68007727       0.00000000
Si      -0.66079149       1.15631307      -2.04026612       0.00000000
Si      -1.57581708       0.04429251       1.87421709       0.00000000
Si       2.50773473       0.04935870       2.61229661       0.00000000
Si       0.59994278       3.14869410      -1.73862696       0.00000000
Si      -1.19839407      -3.33022986      -0.98068741       0.00000000
Si       1.09414391       3.57521517       0.52565614       0.00000000
Si      -3.66916353       0.58637484       0.85507875       0.00000000
Si       3.58292360       1.20951621      -0.76932734       0.00000000
