10
Lattice="16.28999089631971 0.0 0.0 0.0 16.28999089631971 0.0 0.0 0.0 34.3005442915855" Properties=species:S:1:pos:R:3:initial_magmoms:R:1 pbc="T T T"
Si       0.03538188      -0.95462658       2.27309834       0.00000000
Si       0.37198215      -1.68176331      -1.78733376       0.00000000
Si      -2.51168831       0.65474397       0.32191079       0.00000000
Si       1.17830457       2.30014800      -1.08046775       0.00000000
Si      -2.20463647       1.91010024      -1.90872345       0.00000000
Si       3.49956441       0.46897281       0.88581205       0.00000000
Si       1.00119969       0.90207504       3.47730678       0.00000000
Si      -1.49408622      -1.38336309      -3.19375976       0.00000000
Si      -0.77222745       3.55498299      -1.05765787       0.00000000
Si       0.05914899      -3.75624594      -0.58986679       0.00000000
