10
Lattice="16.28999089631971 0.0 0.0 0.0 16.28999089631971 0.0 0.0 0.0 34.3005442915855" Properties=species:S:1:pos:R:3:initial_magmoms:R:1 pbc="T T T"
Si       1.69720623       1.23854499      -1.18314104       0.00000000
Si      -1.27254222       1.35540945       1.59760362       0.00000000
Si       1.44044325      -1.34042265       1.59851945       0.00000000
Si      -1.57807746      -1.36552554      -1.64239128       0.00000000
Si      -2.66240339      -2.77008192       0.05783075       0.00000000
Si      -2.75809900       2.68198953       0.18655733       0.00000000
Si      -0.06882525       0.64381338      -3.88310989       0.00000000
Si      -2.62773827       0.00337203       2.98950334       0.00000000
Si       3.11836212      -2.46653406       0.23219423       0.00000000
Si       2.80580589      -0.24408936      -2.85429879       0.00000000
