10
Lattice="16.28999089631971 0.0 0.0 0.0 16.28999089631971 0.0 0.0 0.0 34.3005442915855" Properties=species:S:1:pos:R:3:initial_magmoms:R:1 pbc="T T T"
Si      -1.35665110      -1.35754344       1.35809651       0.00000000
Si       1.35739063      -1.35731538      -1.35799361       0.00000000
Si      -1.35753076       1.35777150      -1.35754770       0.00000000
Si       1.35850812       1.35920502       1.35785641       0.00000000
Si       0.00106859      -2.71419093      -2.71512970       0.00000000
Si      -2.71526968       0.00193851      -2.71444369       0.00000000
Si      -2.71507420      -2.71476108       0.00037731       0.00000000
Si       2.71505787       2.71531069      -0.00041161       0.00000000
Si      -2.71522081       2.71553333      -0.00065171       0.00000000
Si       2.71580721      -0.00276930       2.71502680       0.00000000
