10
Lattice="16.28999089631971 0.0 0.0 0.0 16.28999089631971 0.0 0.0 0.0 34.3005442915855" Properties=species:S:1:pos:R:3:initial_magmoms:R:1 pbc="T T T"
Si      -1.49701842       1.24105365       1.30983562       0.00000000
Si      -1.35832536      -1.35422028      -1.36176667       0.00000000
Si       1.35321030       1.36575360      -1.36084055       0.00000000
Si       1.52314758      -1.20256038       1.37771643       0.00000000
Si      -0.18466344       2.60731943       2.72562567       0.00000000
Si      -2.72747380      -2.69964396       0.03584409       0.00000000
Si       2.71285515       0.00403992      -2.71773654       0.00000000
Si      -0.00133578      -2.71013472      -2.72068639       0.00000000
Si      -2.71562445       0.00775404      -2.71893706       0.00000000
Si       2.71884987      -2.71596654       0.00761473       0.00000000
