10
Lattice="10.86 0.0 0.0 0.0 10.86 0.0 0.0 0.0 10.86" Properties=species:S:1:pos:R:3:initial_magmoms:R:1 pbc="T T T"
Si      -1.19783628      -1.31030244       1.40323146       0.00000000
Si      -1.19783628       1.40469756      -1.31176854       0.00000000
Si       1.51716372      -1.31030244      -1.31176854       0.00000000
Si       1.49667090       1.27907994       1.36770840       0.00000000
Si      -2.55533628      -2.66780244       0.04573146       0.00000000
Si      -2.55533628       0.04719756      -2.66926854       0.00000000
Si       0.15983748       2.63513556       2.61087432       0.00000000
Si      -2.55533628       0.04719756       2.76073146       0.00000000
Si      -2.55533628       2.76219756       0.04573146       0.00000000
Si       0.15966372      -2.66780244      -2.66926854       0.00000000
