10
Lattice="10.86 0.0 0.0 0.0 10.86 0.0 0.0 0.0 10.86" Properties=species:S:1:pos:R:3:initial_magmoms:R:1 pbc="T T T"
Si      -1.33683342       1.35605562       1.24316592       0.00000000
Si       1.20269070       1.43978622      -1.45273134       0.00000000
Si      -1.49667090      -1.27907994      -1.36770840       0.00000000
Si      -0.28872396      -2.48077152       2.53457196       0.00000000
Si       0.02049282      -2.58938238      -2.67947694       0.00000000
Si      -2.69450718      -2.58938238       0.03552306       0.00000000
Si      -2.69450718       0.12561762      -2.67947694       0.00000000
Si       2.73549282       0.12561762      -2.67947694       0.00000000
Si      -2.69450718       0.12561762       2.75052306       0.00000000
Si       0.02049282       2.84061762      -2.67947694       0.00000000
