10
Lattice="10.86 0.0 0.0 0.0 10.86 0.0 0.0 0.0 10.86" Properties=species:S:1:pos:R:3:initial_magmoms:R:1 pbc="T T T"
Si       1.31208348      -1.40768406      -1.21492992       0.00000000
Si      -1.74762378       0.95497410      -1.25767488       0.00000000
Si       1.31208348       1.30731594       1.50007008       0.00000000
Si      -1.40291652      -1.40768406       1.50007008       0.00000000
Si      -0.15295224       2.28301092      -2.38774476       0.00000000
Si       2.62050714      -0.26337672      -2.44098048       0.00000000
Si       2.61470790       2.72133138       0.07598742       0.00000000
Si      -0.04541652      -2.76518406      -2.57242992       0.00000000
Si      -2.65061106       2.75749518       0.14843448       0.00000000
Si       2.66958348      -2.76518406       0.14257008       0.00000000
