10
Lattice="10.86 0.0 0.0 0.0 10.86 0.0 0.0 0.0 10.86" Properties=species:S:1:pos:R:3:initial_magmoms:R:1 pbc="T T T"
Si       1.46365650       1.28751816       1.12209864       0.00000000
Si      -1.03008186      -1.54730022       1.30353666       0.00000000
Si      -1.25134350       1.28751816      -1.59290136       0.00000000
Si       1.46365650      -1.42748184      -1.59290136       0.00000000
Si      -2.68705722      -0.15190968       2.34049290       0.00000000
Si       0.10615650       2.64501816       2.47959864       0.00000000
Si      -2.28987444      -2.87609724      -0.01163106       0.00000000
Si      -2.60884350       2.64501816      -0.23540136       0.00000000
Si       2.82115650       2.64501816      -0.23540136       0.00000000
Si       2.91747384      -2.54394414      -0.47439738       0.00000000
