10
Lattice="10.86 0.0 0.0 0.0 10.86 0.0 0.0 0.0 10.86" Properties=species:S:1:pos:R:3:initial_magmoms:R:1 pbc="T T T"
Si       1.31150790      -1.32318240      -1.20540570       0.00000000
Si      -1.40349210       1.39181760      -1.20540570       0.00000000
Si      -1.40349210      -1.32318240       1.50959430       0.00000000
Si      -2.44202304       2.65820220       0.37586460       0.00000000
Si       2.66900790       0.03431760      -2.56290570       0.00000000
Si      -0.04599210      -2.68068240      -2.56290570       0.00000000
Si      -0.04599210       2.74931760      -2.56290570       0.00000000
Si      -2.76099210       0.03431760      -2.56290570       0.00000000
Si       2.66900790      -2.68068240       0.15209430       0.00000000
Si      -2.76099210      -2.68068240       0.15209430       0.00000000
