10
Lattice="10.86 0.0 0.0 0.0 10.86 0.0 0.0 0.0 10.86" Properties=species:S:1:pos:R:3:initial_magmoms:R:1 pbc="T T T"
Si       0.96445488      -1.11022866      -1.58200878       0.00000000
Si       0.96445488       1.60477134       1.13299122       0.00000000
Si      -1.75054512      -1.11022866       1.13299122       0.00000000
Si       2.32195488      -2.46772866      -0.22450878       0.00000000
Si       2.32195488       0.24727134       2.49049122       0.00000000
Si      -0.39304512      -2.46772866       2.49049122       0.00000000
Si       2.32195488       0.24727134      -2.93950878       0.00000000
Si       2.32195488       2.96227134      -0.22450878       0.00000000
Si      -0.23982138      -2.10994596      -3.15693684       0.00000000
Si      -0.39304512       2.96227134       2.49049122       0.00000000
