10
Lattice="10.86 0.0 0.0 0.0 10.86 0.0 0.0 0.0 10.86" Properties=species:S:1:pos:R:3:initial_magmoms:R:1 pbc="T T T"
Si       1.23941922      -1.25055072      -1.27859124       0.00000000
Si       1.23941922       1.46444928       1.43640876       0.00000000
Si      -1.47558078       1.46444928      -1.27859124       0.00000000
Si      -0.16434438      -2.63789400      -2.52842520       0.00000000
Si       2.59691922      -2.60805072       0.07890876       0.00000000
Si       2.59691922       0.10694928      -2.63609124       0.00000000
Si       2.59691922       0.10694928       2.79390876       0.00000000
Si       2.59691922       2.82194928       0.07890876       0.00000000
Si      -0.11808078       2.82194928      -2.63609124       0.00000000
Si      -0.11808078       2.82194928       2.79390876       0.00000000
