10
Lattice="16.28999089631971 0.0 0.0 0.0 16.28999089631971 0.0 0.0 0.0 34.397273925272025" Properties=species:S:1:pos:R:3:initial_magmoms:R:1 pbc="T T T"
Si       1.78377129       1.23782823      -0.82756448       0.00000000
Si       0.84546729      -1.25379243       1.79258054       0.00000000
Si      -0.65422269      -1.30023522      -1.85896731       0.00000000
Si      -1.63450602       1.68549372       0.31614552       0.00000000
Si       1.78116489       2.83768542       0.87259053       0.00000000
Si      -2.74879415      -0.41995620      -2.33856877       0.00000000
Si       2.18325096      -2.86321185       0.64519003       0.00000000
Si      -2.54944039       1.85143995      -1.91486291       0.00000000
Si       1.23685083       1.39590639      -3.18845709       0.00000000
Si      -1.22864067      -3.36598641      -0.95191069       0.00000000
