10
Lattice="16.28999089631971 0.0 0.0 0.0 16.28999089631971 0.0 0.0 0.0 34.397273925272025" Properties=species:S:1:pos:R:3:initial_magmoms:R:1 pbc="T T T"
Si      -1.91168526      -0.05660775       1.34634445       0.00000000
Si       1.19671227       1.96657020       0.54633221       0.00000000
Si       1.63450602      -1.68549372      -0.31614552       0.00000000
Si      -0.91493437       0.16594623      -2.23100843       0.00000000
Si      -1.11428813      -2.10544992      -2.65471429       0.00000000
Si      -2.72716496       2.16476411       0.93385211       0.00000000
Si       0.42852474       3.36930047      -1.22987522       0.00000000
Si       3.41827731      -0.44766549      -1.14371000       0.00000000
Si       3.41567091       1.15219170       0.55644501       0.00000000
Si       0.98028333      -2.98572894      -2.17511283       0.00000000
