10
Lattice="16.28999089631971 0.0 0.0 0.0 16.28999089631971 0.0 0.0 0.0 34.397273925272025" Properties=species:S:1:pos:R:3:initial_magmoms:R:1 pbc="T T T"
Si       1.63507617       1.70191567      -0.14924985       0.00000000
Si      -1.33920090      -0.05083294      -1.95806591       0.00000000
Si      -1.20958137       1.16889058       1.67831273       0.00000000
Si       0.46335276      -2.25455785       0.73854428       0.00000000
Si       2.85711939       1.11537793       1.76833044       0.00000000
Si      -1.63955592      -2.94246826       1.71934870       0.00000000
Si      -3.40210134       0.35241297       1.80183341       0.00000000
Si      -1.44177903       3.44067769       1.10270842       0.00000000
Si       0.70649730       3.85802749       0.27600388       0.00000000
Si       1.92262725       0.50795641      -3.43862860       0.00000000
