10
Lattice="16.28999089631971 0.0 0.0 0.0 16.28999089631971 0.0 0.0 0.0 34.397273925272025" Properties=species:S:1:pos:R:3:initial_magmoms:R:1 pbc="T T T"
Si       1.02328893      -1.58268264       1.36650126       0.00000000
Si      -2.16665145       0.75243510       0.56112304       0.00000000
Si       1.33626870       1.85425812       0.75622449       0.00000000
Si      -0.54918477      -0.68445693      -2.26127805       0.00000000
Si      -1.95753672       2.50825275      -0.97433773       0.00000000
Si      -0.78138243       1.58733018      -2.83688236       0.00000000
Si       2.87024913      -2.09651160      -0.22200013       0.00000000
Si      -3.42199143      -1.13692797       0.05448531       0.00000000
Si       0.98008785      -0.31537440       3.49414583       0.00000000
Si       0.73339209       2.02157271       3.03800333       0.00000000
