10
Lattice="16.28999089631971 0.0 0.0 0.0 16.28999089631971 0.0 0.0 0.0 34.397273925272025" Properties=species:S:1:pos:R:3:initial_magmoms:R:1 pbc="T T T"
Si       0.02176344      -0.63976061       2.27844230       0.00000000
Si      -0.55742751       2.20356834      -1.02827268       0.00000000
Si       0.40361733      -1.52777738      -1.96374147       0.00000000
Si       2.52288117      -0.76731131      -1.11068860       0.00000000
Si       2.99463957       1.54629942      -1.18859846       0.00000000
Si      -2.52012816       1.61812203      -2.25556810       0.00000000
Si       1.27203723       2.47109901      -2.54003372       0.00000000
Si       0.91354320       1.09532380       3.67939731       0.00000000
Si       2.03426262      -2.59405562       2.46971215       0.00000000
Si       2.24953497       2.52804885       2.35607699       0.00000000
