10
Lattice="16.28999089631971 0.0 0.0 0.0 16.28999089631971 0.0 0.0 0.0 34.397273925272025" Properties=species:S:1:pos:R:3:initial_magmoms:R:1 pbc="T T T"
Si      -0.21102066      -1.10728017      -1.98094011       0.00000000
Si      -2.08671642      -0.57357090       0.78604694       0.00000000
Si       1.14453540      -1.13384916       1.70283800       0.00000000
Si       0.68499450       2.26075878      -0.11000254       0.00000000
Si      -2.02504248       0.66857418       2.73145465       0.00000000
Si       3.29281173      -0.71649936       0.87613345       0.00000000
Si      -0.75732210      -3.27274245      -1.20149745       0.00000000
Si      -0.03161889      -0.21292659       3.56538263       0.00000000
Si       3.35156976       0.19471437      -1.32188798       0.00000000
Si      -1.99034478      -2.95720515       0.84297446       0.00000000
