10
Lattice="16.28999089631971 0.0 0.0 0.0 16.28999089631971 0.0 0.0 0.0 34.397273925272025" Properties=species:S:1:pos:R:3:initial_magmoms:R:1 pbc="T T T"
Si       0.08902485       0.90732042       2.14879890       0.00000000
Si      -0.68499450      -2.26075878       0.11000254       0.00000000
Si       2.08725399       0.22007790      -1.11271804       0.00000000
Si      -1.24336683       1.42482114      -1.46449915       0.00000000
Si      -2.33114787       0.74174886       2.54447097       0.00000000
Si       2.66657526      -2.06604441      -1.21188543       0.00000000
Si      -0.44877321       3.64739616      -0.54461234       0.00000000
Si       0.45954090      -3.39460794       1.81284054       0.00000000
Si      -0.89601516      -3.36803895      -1.87093757       0.00000000
Si       1.64612079       2.84879520       2.29815195       0.00000000
