10
Lattice="16.28999089631971 0.0 0.0 0.0 16.28999089631971 0.0 0.0 0.0 34.397273925272025" Properties=species:S:1:pos:R:3:initial_magmoms:R:1 pbc="T T T"
Si       1.35821133      -1.35606105       1.35312072       0.00000000
Si       1.35602847       1.35995436      -1.35848670       0.00000000
Si      -1.35899325      -1.35627282      -1.35948422       0.00000000
Si      -1.36270737       1.36637262       1.36034415       0.00000000
Si       2.71191033      -2.71091664      -0.00106632       0.00000000
Si       2.72427444      -0.01086543       2.70293930       0.00000000
Si      -0.00127062      -2.71282257      -2.71580388       0.00000000
Si      -2.71697652      -2.71189404      -0.00457484       0.00000000
Si       2.71332756       0.00210141      -2.71607906       0.00000000
Si       2.71593396       2.71643895      -0.00175426       0.00000000
