10
Lattice="16.28999089631971 0.0 0.0 0.0 16.28999089631971 0.0 0.0 0.0 34.397273925272025" Properties=species:S:1:pos:R:3:initial_magmoms:R:1 pbc="T T T"
Si      -0.96884775      -0.27134253      -2.13889248       0.00000000
Si       0.36810513       2.33067546       0.43952861       0.00000000
Si       2.24024967      -0.95285097       0.17171129       0.00000000
Si      -1.40680440      -0.86701896       1.82608350       0.00000000
Si       0.51631155      -1.61371998       2.95943991       0.00000000
Si       1.64151072      -2.92970763       1.27521085       0.00000000
Si      -1.80628407       3.23402112       0.35332900       0.00000000
Si       1.89055224       2.21483727       2.32591057       0.00000000
Si       0.83067597       0.39548862      -3.66854011       0.00000000
Si       3.42816534       0.60225759       1.58554323       0.00000000
