10
Lattice="16.28999089631971 0.0 0.0 0.0 16.28999089631971 0.0 0.0 0.0 34.397273925272025" Properties=species:S:1:pos:R:3:initial_magmoms:R:1 pbc="T T T"
Si       0.64570302      -1.11470841      -1.90368379       0.00000000
Si       1.05485895      -1.29256263       1.77696416       0.00000000
Si      -1.69007121       1.67585004      -0.68278627       0.00000000
Si       1.90223217       1.36241415      -1.07137249       0.00000000
Si      -2.11600584       1.60484193       1.67972302       0.00000000
Si       2.14154856      -2.75674041       0.20266885       0.00000000
Si       2.38182606       3.08633598       0.43502257       0.00000000
Si       2.37205206       0.10614564       3.17347848       0.00000000
Si      -0.77434515       3.07928241      -2.42607548       0.00000000
Si       0.82072278      -0.03142341      -3.93388083       0.00000000
