10
Lattice="16.28999089631971 0.0 0.0 0.0 16.28999089631971 0.0 0.0 0.0 34.397273925272025" Properties=species:S:1:pos:R:3:initial_magmoms:R:1 pbc="T T T"
Si      -1.30269501       1.33066494       1.44873143       0.00000000
Si       1.22067486       1.59887979      -1.25776570       0.00000000
Si      -1.56801024      -1.18596087      -1.40129210       0.00000000
Si       1.42029252      -1.38513870       1.43432929       0.00000000
Si      -2.58111792       2.70203859      -0.03143913       0.00000000
Si      -2.64582180      -0.02862153       2.81548724       0.00000000
Si      -2.68014483      -2.81095353      -0.03552896       0.00000000
Si       2.77803144       2.71860552       0.06023654       0.00000000
Si       0.06480162       2.68991883       2.81555603       0.00000000
Si      -0.79182432       3.55317480      -1.44903555       0.00000000
