10
Lattice="16.28999089631971 0.0 0.0 0.0 16.28999089631971 0.0 0.0 0.0 34.397273925272025" Properties=species:S:1:pos:R:3:initial_magmoms:R:1 pbc="T T T"
Si       0.58606533      -2.25069156       0.13855230       0.00000000
Si       1.41709968       1.28915802       1.36605410       0.00000000
Si      -1.28448279       0.91391787      -1.79378444       0.00000000
Si      -2.43136395       0.30147903       0.30046036       0.00000000
Si      -1.47665592      -2.97976680       1.08337714       0.00000000
Si       1.68902865      -0.26375139       3.12716111       0.00000000
Si      -2.29110705       2.71088310      -0.39718554       0.00000000
Si       0.34647201       2.16617482      -2.84534409       0.00000000
Si       2.11015773      -2.28213126       1.89735469       0.00000000
Si      -3.15248967      -1.92161727      -0.42033492       0.00000000
