10
Lattice="16.28999089631971 0.0 0.0 0.0 16.28999089631971 0.0 0.0 0.0 34.397273925272025" Properties=species:S:1:pos:R:3:initial_magmoms:R:1 pbc="T T T"
Si      -1.49428170      -1.41379281       1.20885847       0.00000000
Si       1.86357600       0.54856575       1.42573340       0.00000000
Si      -0.94038912       2.21320827      -0.53673536       0.00000000
Si       0.59474790      -1.48569687      -1.92253351       0.00000000
Si      -0.35996013       1.79554896      -2.70545030       0.00000000
Si      -1.08108585      -0.42754734      -3.42624558       0.00000000
Si      -3.49293438      -1.33115364      -0.06752189       0.00000000
Si       2.40013602      -1.54556262       2.52197514       0.00000000
Si      -1.23799113      -0.83500911       3.63022152       0.00000000
Si       2.07140382       1.49406993      -3.00591065       0.00000000
