10
Lattice="16.28999089631971 0.0 0.0 0.0 16.28999089631971 0.0 0.0 0.0 34.397273925272025" Properties=species:S:1:pos:R:3:initial_magmoms:R:1 pbc="T T T"
Si      -0.02176344       0.63976061      -2.27844230       0.00000000
Si       0.89177976       1.73508441       1.40095501       0.00000000
Si      -1.78929360      -0.85113621       1.41759642       0.00000000
Si       2.01249918      -1.95429501       0.19126984       0.00000000
Si      -0.51087069      -2.22250986       2.89776698       0.00000000
Si       2.22281937       0.49112721       2.90394817       0.00000000
Si      -3.23771895      -1.96936326      -0.09307908       0.00000000
Si       2.22777153       3.16780946       0.07763469       0.00000000
Si       0.79182432      -3.55317480       1.44903555       0.00000000
Si       3.56985576      -0.83456928       1.50927209       0.00000000
