10
Lattice="16.28999089631971 0.0 0.0 0.0 16.28999089631971 0.0 0.0 0.0 34.397273925272025" Properties=species:S:1:pos:R:3:initial_magmoms:R:1 pbc="T T T"
Si       1.35617508       1.35653346       1.35683563       0.00000000
Si       1.35405738      -1.35670939      -1.35903705       0.00000000
Si      -1.35850455      -1.35809078       1.35693882       0.00000000
Si      -1.35651717       1.35620766      -1.36099770       0.00000000
Si       2.71334385      -0.00058644       2.71456558       0.00000000
Si       2.71438641      -2.71383983       0.00010319       0.00000000
Si      -0.00187335       2.71417464       2.71408402       0.00000000
Si       2.71397916       2.71464705      -0.00058475       0.00000000
Si      -2.71604799      -0.00061902       2.71408402       0.00000000
Si      -0.00128691      -2.71555285       2.71484076       0.00000000
