10
Lattice="16.28999089631971 0.0 0.0 0.0 16.28999089631971 0.0 0.0 0.0 34.397273925272025" Properties=species:S:1:pos:R:3:initial_magmoms:R:1 pbc="T T T"
Si       2.21895864      -0.81437850       0.01011280       0.00000000
Si      -1.19671227      -1.96657020      -0.54633221       0.00000000
Si      -0.15827364       1.37130686       1.94791871       0.00000000
Si      -0.76818753       1.40273027      -1.77620742       0.00000000
Si       0.48715245       3.29209334      -1.26956969       0.00000000
Si      -0.29510964       3.51575504       0.90217220       0.00000000
Si       2.22156504      -2.41423569      -1.69004220       0.00000000
Si       0.43779375      -3.65206392      -0.86247773       0.00000000
Si      -3.10839753      -2.02317795       0.80001224       0.00000000
Si      -3.11739449       1.56708008      -1.49177621       0.00000000
