10
Lattice="16.28999089631971 0.0 0.0 0.0 16.28999089631971 0.0 0.0 0.0 34.397273925272025" Properties=species:S:1:pos:R:3:initial_magmoms:R:1 pbc="T T T"
Si       1.90850382       0.20681784      -1.32150961       0.00000000
Si      -0.47175840      -2.31361073       0.07790987       0.00000000
Si      -1.72260234       0.92479959      -1.35143525       0.00000000
Si       1.04249484       0.18507069       2.13459282       0.00000000
Si      -2.99463957      -1.54629942       1.18859846       0.00000000
Si      -3.55206708       0.65726892       0.16032578       0.00000000
Si       2.85405687       2.23239789      -0.58011035       0.00000000
Si      -0.74510460       0.98174943       3.54467546       0.00000000
Si       1.51526322      -3.27410171      -1.04461140       0.00000000
Si       2.73227283       1.89837144       1.89226389       0.00000000
