10
Lattice="16.28999089631971 0.0 0.0 0.0 16.28999089631971 0.0 0.0 0.0 34.397273925272025" Properties=species:S:1:pos:R:3:initial_magmoms:R:1 pbc="T T T"
Si      -1.35671265      -1.35692442       1.35693882       0.00000000
Si      -1.35681039       1.35773892      -1.35683563       0.00000000
Si       1.35804843      -1.35764118      -1.35724839       0.00000000
Si       1.35637056       1.35964485       1.35790194       0.00000000
Si       0.00267156       2.71450044       2.71208898       0.00000000
Si       0.00187335      -2.71417464      -2.71408402       0.00000000
Si      -2.71453302       2.71428867      -0.00051596       0.00000000
Si      -2.71417464      -2.71479366       0.00000000       0.00000000
Si      -2.71554300       0.00140094       2.71360246       0.00000000
Si       0.00000000       2.71568961      -2.71377444       0.00000000
