10
Lattice="16.28999089631971 0.0 0.0 0.0 16.28999089631971 0.0 0.0 0.0 34.397273925272025" Properties=species:S:1:pos:R:3:initial_magmoms:R:1 pbc="T T T"
Si       1.54955367       0.39045012      -1.73812962       0.00000000
Si      -2.13471395       0.11226091      -1.06600651       0.00000000
Si       0.61514298       2.15167605       0.97860299       0.00000000
Si      -0.32256155      -2.34358921       1.20655385       0.00000000
Si      -2.19601322       2.42222037      -1.27214949       0.00000000
Si      -3.30179471      -0.08833253       1.20180703       0.00000000
Si      -1.85025515      -1.30651876       2.70431519       0.00000000
Si       3.51225432       0.97589643      -0.51083420       0.00000000
Si      -1.25442937       3.52940280       0.58936322       0.00000000
Si       0.48203739       1.89183426       3.30992291       0.00000000
