10
Lattice="16.28999089631971 0.0 0.0 0.0 16.28999089631971 0.0 0.0 0.0 34.397273925272025" Properties=species:S:1:pos:R:3:initial_magmoms:R:1 pbc="T T T"
Si      -1.41297831       1.22854293       1.36626048       0.00000000
Si       1.34618931       1.36906047      -1.34252635       0.00000000
Si      -1.36606311      -1.34519562      -1.34981858       0.00000000
Si       1.38686544      -1.27891161       1.42332559       0.00000000
Si       0.43464978       2.20226139       2.49094878       0.00000000
Si      -2.18642751      -0.76942557       2.48946969       0.00000000
Si       2.27079342       0.50378454       2.69998113       0.00000000
Si      -0.27222219      -2.30676174       2.72725818       0.00000000
Si      -0.01236411      -2.70005121      -2.70400561       0.00000000
Si       2.70409113       0.01469358      -2.70383363       0.00000000
