10
Lattice="16.28999089631971 0.0 0.0 0.0 16.28999089631971 0.0 0.0 0.0 34.397273925272025" Properties=species:S:1:pos:R:3:initial_magmoms:R:1 pbc="T T T"
Si       1.35542574       1.35866745      -1.35711080       0.00000000
Si      -1.35990549      -1.35648459      -1.35673243       0.00000000
Si       1.35452979      -1.35824391       1.36216721       0.00000000
Si      -1.36057338       1.35711990       1.36044734       0.00000000
Si       2.71243161      -2.71261080       0.00085993       0.00000000
Si       2.71293660       0.00024435      -2.71453118       0.00000000
Si      -0.00260640      -2.71433754      -2.71432480       0.00000000
Si       2.71298547       2.71682991      -0.00106632       0.00000000
Si      -0.00281817       2.71591767      -2.71453118       0.00000000
Si      -2.71720458       0.00057015      -2.71446239       0.00000000
