10
Lattice="16.28999089631971 0.0 0.0 0.0 16.28999089631971 0.0 0.0 0.0 34.397273925272025" Properties=species:S:1:pos:R:3:initial_magmoms:R:1 pbc="T T T"
Si      -1.24574191       1.29127572      -1.47307440       0.00000000
Si       1.33519356       1.37125962       1.34491696       0.00000000
Si      -1.37510732      -1.34710155       1.34216518       0.00000000
Si       1.47331647      -1.23548247      -1.39598662       0.00000000
Si      -0.41378229      -2.15182755      -2.40656121       0.00000000
Si       0.61595748       2.11841676      -2.71818211       0.00000000
Si      -2.22664100      -0.58806900      -2.72770332       0.00000000
Si       2.69395875       0.01229895       2.70147741       0.00000000
Si       2.31570495       0.36903366      -3.01357923       0.00000000
Si      -0.02055798      -2.70288567       2.70299089       0.00000000
