10
Lattice="16.28999089631971 0.0 0.0 0.0 16.28999089631971 0.0 0.0 0.0 34.397273925272025" Properties=species:S:1:pos:R:3:initial_magmoms:R:1 pbc="T T T"
Si       0.44844741      -2.05052004      -1.03367306       0.00000000
Si      -0.53656002       2.09412837      -1.09624173       0.00000000
Si       2.29820949       0.26793792       0.72413182       0.00000000
Si      -1.79952372      -0.66683115       1.52964763       0.00000000
Si       2.69448003      -1.77603354       1.88930572       0.00000000
Si       2.00748186      -1.53399672      -2.80245066       0.00000000
Si      -0.83067597      -0.39548862       3.66854011       0.00000000
Si      -2.40013602       1.54556262      -2.52197514       0.00000000
Si       1.67125626      -3.39569937       0.47898231       0.00000000
Si      -3.63812715       0.71055351       1.10824639       0.00000000
