10
Lattice="16.28999089631971 0.0 0.0 0.0 16.28999089631971 0.0 0.0 0.0 34.397273925272025" Properties=species:S:1:pos:R:3:initial_magmoms:R:1 pbc="T T T"
Si      -0.59873895      -1.97685666       1.10349956       0.00000000
Si       1.28490633      -0.42769395      -1.95094567       0.00000000
Si       1.18791567       1.55510856       1.41383194       0.00000000
Si      -2.24024967       0.95285097      -0.17171129       0.00000000
Si      -1.72393812      -0.66086901       2.78772862       0.00000000
Si       0.88863579       1.61627751      -3.11611958       0.00000000
Si      -1.87214454       3.28352643       0.26781732       0.00000000
Si       2.48878620       2.88468207      -0.09662200       0.00000000
Si      -2.06425251      -3.22543629      -0.29402806       0.00000000
Si      -0.34969743       3.16768824       2.15419928       0.00000000
