10
Lattice="16.28999089631971 0.0 0.0 0.0 16.28999089631971 0.0 0.0 0.0 34.397273925272025" Properties=species:S:1:pos:R:3:initial_magmoms:R:1 pbc="T T T"
Si      -1.35542574      -1.35866745       1.35711080       0.00000000
Si       1.35755973       1.35816246       1.35604449       0.00000000
Si      -1.35824391       1.35725022      -1.35742038       0.00000000
Si       1.35751086      -1.35842310      -1.35742038       0.00000000
Si       2.71432125       2.71406535      -0.00006879       0.00000000
Si       0.00146610       2.71214031       2.71659502       0.00000000
Si       2.71472850      -2.71404432      -0.00044716       0.00000000
Si      -2.71438641       0.00076563      -2.71456558       0.00000000
Si       2.71363707      -0.00117288       2.71570069       0.00000000
Si      -2.71523349       2.71459552       0.00065355       0.00000000
