10
Lattice="16.28999089631971 0.0 0.0 0.0 16.28999089631971 0.0 0.0 0.0 34.397273925272025" Properties=species:S:1:pos:R:3:initial_magmoms:R:1 pbc="T T T"
Si      -0.27192897       1.55290941      -1.76110701       0.00000000
Si       2.13457644       0.56698974       0.86206496       0.00000000
Si       0.42112908      -2.01837987      -1.22980642       0.00000000
Si      -1.89685647      -0.68175279       1.30448295       0.00000000
Si       2.01971565       1.26195372      -2.32938469       0.00000000
Si       2.40683121      -1.18873017      -2.10683421       0.00000000
Si      -1.68902865       0.26375139      -3.12716111       0.00000000
Si       3.41094681      -1.22790762       0.06834742       0.00000000
Si      -1.10296332      -1.98694017      -2.98860882       0.00000000
Si       3.02120856       2.39177666      -0.29468161       0.00000000
