10
Lattice="16.28999089631971 0.0 0.0 0.0 16.28999089631971 0.0 0.0 0.0 34.397273925272025" Properties=species:S:1:pos:R:3:initial_magmoms:R:1 pbc="T T T"
Si      -0.98191233      -1.51052283       1.55111154       0.00000000
Si       2.05796457      -1.10848563      -0.61522999       0.00000000
Si      -1.60031331       0.23881140      -1.87678511       0.00000000
Si       0.14618646       2.25020516       1.10226126       0.00000000
Si      -3.15630153      -0.60717717       1.46491192       0.00000000
Si       0.79345332       3.60874718      -0.84699895       0.00000000
Si      -3.70322199      -0.44909901      -0.89598069       0.00000000
Si       0.54053478      -1.62636102       3.43749349       0.00000000
Si       3.34497231       0.46144683      -1.87747305       0.00000000
Si      -1.05590151      -1.35158130      -3.65319892       0.00000000
