10
Lattice="16.28999089631971 0.0 0.0 0.0 16.28999089631971 0.0 0.0 0.0 34.397273925272025" Properties=species:S:1:pos:R:3:initial_magmoms:R:1 pbc="T T T"
Si       1.32105384      -0.80088156       1.80190220       0.00000000
Si       1.28700774       1.56993246      -1.26224307       0.00000000
Si      -0.27909657      -2.06928612      -1.21759538       0.00000000
Si      -2.05796457       1.10848563       0.61522999       0.00000000
Si       0.91756683       1.00564686      -3.48038692       0.00000000
Si      -3.03987690      -0.40203720       2.16634152       0.00000000
Si       2.97471690      -2.19160773       0.86399121       0.00000000
Si       1.69616367      -2.30935185      -2.58726120       0.00000000
Si       2.88383499       0.84766644       2.44798656       0.00000000
Si       3.41495415      -1.36915821      -1.26100477       0.00000000
