10
Lattice="16.28999089631971 0.0 0.0 0.0 16.28999089631971 0.0 0.0 0.0 34.397273925272025" Properties=species:S:1:pos:R:3:initial_magmoms:R:1 pbc="T T T"
Si      -1.12609512       0.84637953      -1.86270978       0.00000000
Si       0.69134760       1.89635148       1.21108535       0.00000000
Si      -1.86169939      -0.82714104       1.24510771       0.00000000
Si       1.69974747      -1.74938310      -0.29539711       0.00000000
Si       2.09153826       0.60681879       2.68108807       0.00000000
Si      -0.61595748      -2.11841676       2.71818211       0.00000000
Si       0.85735899      -3.35389923       1.32219549       0.00000000
Si      -3.12948004      -0.36067689      -2.03562497       0.00000000
Si       3.49593174      -0.76390326       1.22281483       0.00000000
Si      -2.84259848      -2.70648576      -0.00952121       0.00000000
