10
Lattice="16.28999089631971 0.0 0.0 0.0 16.28999089631971 0.0 0.0 0.0 34.397273925272025" Properties=species:S:1:pos:R:3:initial_magmoms:R:1 pbc="T T T"
Si       0.91973340      -1.29940443       1.80867847       0.00000000
Si      -0.95335596      -1.45880208      -1.68773759       0.00000000
Si       1.83552462       1.63652763      -0.08224393       0.00000000
Si      -1.98702162       0.96049098       1.12252126       0.00000000
Si       0.39324060       3.48091955      -0.27689821       0.00000000
Si      -1.87691751      -3.06462141      -0.26362085       0.00000000
Si      -1.51526322       3.27410171       1.04461140       0.00000000
Si       1.74193857       0.17347221       3.42817182       0.00000000
Si       3.13510824       1.23536844       1.87272623       0.00000000
Si       0.58425714      -3.07138176      -2.42810492       0.00000000
