10
Lattice="16.28999089631971 0.0 0.0 0.0 16.28999089631971 0.0 0.0 0.0 34.397273925272025" Properties=species:S:1:pos:R:3:initial_magmoms:R:1 pbc="T T T"
Si      -0.47959389      -1.72392183      -1.50639506       0.00000000
Si       1.30243437      -1.43606124       1.39747190       0.00000000
Si       1.68622677       0.87019551      -1.50601669       0.00000000
Si      -1.70914680       1.30334661       1.38822685       0.00000000
Si       2.50843194       2.34307215       0.11347667       0.00000000
Si      -0.15179022       2.42307234       2.70622909       0.00000000
Si       2.97773055      -2.30918895      -0.08764430       0.00000000
Si       1.53288900      -2.92794831      -1.92765871       0.00000000
Si      -1.11042414      -0.89502147      -3.57831601       0.00000000
Si       2.67405237      -0.21854664       2.78752365       0.00000000
