10
Lattice="16.28999089631971 0.0 0.0 0.0 16.28999089631971 0.0 0.0 0.0 34.397273925272025" Properties=species:S:1:pos:R:3:initial_magmoms:R:1 pbc="T T T"
Si      -1.48902003      -1.25313285      -1.31845310       0.00000000
Si       1.32618519      -1.33668369       1.45098446       0.00000000
Si      -1.37311668       1.36562165       1.44963608       0.00000000
Si       1.17563301       1.39062680      -1.64773839       0.00000000
Si      -2.30151636       0.53724257      -2.77627918       0.00000000
Si      -0.08680941      -2.74845762      -2.52731157       0.00000000
Si       2.77195527      -2.60013717       0.05213254       0.00000000
Si      -0.61173837       2.25054332      -3.01860811       0.00000000
Si       2.67908598       2.71956500      -0.02408842       0.00000000
Si      -2.74703157      -2.66845743       0.06544085       0.00000000
