10
Lattice="16.28999089631971 0.0 0.0 0.0 16.28999089631971 0.0 0.0 0.0 34.397273925272025" Properties=species:S:1:pos:R:3:initial_magmoms:R:1 pbc="T T T"
Si       1.35595071       1.35735448      -1.35714520       0.00000000
Si      -1.35907470      -1.35864709      -1.35779875       0.00000000
Si       1.35416822      -1.36057405       1.36089451       0.00000000
Si      -1.36145304       1.35986314       1.36168564       0.00000000
Si       2.71299266      -0.00026227      -2.71470317       0.00000000
Si       2.71256749      -2.71539706       0.00000000       0.00000000
Si      -0.00131949       2.71400197      -2.71494395       0.00000000
Si      -2.71459818       2.71483276      -0.00096312       0.00000000
Si      -0.00107514      -2.71531561      -2.71473757       0.00000000
Si      -2.71583622      -2.71454998      -0.00168547       0.00000000
