10
Lattice="16.28999089631971 0.0 0.0 0.0 16.28999089631971 0.0 0.0 0.0 34.397273925272025" Properties=species:S:1:pos:R:3:initial_magmoms:R:1 pbc="T T T"
Si       1.36083402       1.34754138       1.38770376       0.00000000
Si      -1.35371529      -1.36873467       1.38801333       0.00000000
Si       1.35422028      -1.37826432      -1.45435883       0.00000000
Si      -1.41942915       1.32113529      -1.48577044       0.00000000
Si      -2.69723304       2.68850160       0.03023522       0.00000000
Si       2.69339269      -2.72344365       0.02979494       0.00000000
Si      -2.69798238      -2.73220767       0.01936568       0.00000000
Si       2.73276779       2.70086571       0.00413111       0.00000000
Si       0.00232947       2.70741429       2.74877025       0.00000000
Si      -2.71221984      -0.00884547       2.74846067       0.00000000
