10
Lattice="16.28999089631971 0.0 0.0 0.0 16.28999089631971 0.0 0.0 0.0 34.397273925272025" Properties=species:S:1:pos:R:3:initial_magmoms:R:1 pbc="T T T"
Si      -1.35433177      -1.33703433       1.36632928       0.00000000
Si      -1.35123667       1.35576783      -1.35497817       0.00000000
Si       1.36366354      -1.35666378      -1.35532214       0.00000000
Si       1.37311012       1.34904006       1.35594130       0.00000000
Si       2.54890603      -0.15353325       2.77259381       0.00000000
Si      -2.49699382       0.25381449       2.85693598       0.00000000
Si      -0.01315978      -2.63355543       2.75061394       0.00000000
Si      -2.71032766      -0.00070047      -2.71298331       0.00000000
Si      -2.71321099      -2.71280628       0.00639790       0.00000000
Si      -2.71277116       2.71357191       0.00588194       0.00000000
