10
Lattice="16.28999089631971 0.0 0.0 0.0 16.28999089631971 0.0 0.0 0.0 34.397273925272025" Properties=species:S:1:pos:R:3:initial_magmoms:R:1 pbc="T T T"
Si       1.35866745       1.25727849       1.50739258       0.00000000
Si       1.13191065      -2.11805838      -0.24188177       0.00000000
Si      -1.82332341      -0.77020749       1.42421992       0.00000000
Si      -0.34011891       0.30517686       2.94141573       0.00000000
Si      -2.38431843       0.77366097      -2.82408656       0.00000000
Si       1.30017006       2.58626556      -2.54553728       0.00000000
Si       2.89701101      -2.20595922       1.39677088       0.00000000
Si       1.59319458      -2.49668685      -2.58020975       0.00000000
Si       3.36534037       0.06165765       2.32388113       0.00000000
Si      -3.75513822       0.67758255       1.47777651       0.00000000
