10
Lattice="16.28999089631971 0.0 0.0 0.0 16.28999089631971 0.0 0.0 0.0 34.397273925272025" Properties=species:S:1:pos:R:3:initial_magmoms:R:1 pbc="T T T"
Si       0.49777353       1.52010135      -1.68684326       0.00000000
Si       1.14903144      -1.93427460      -0.69327744       0.00000000
Si       1.71879048       0.94019364       1.32625643       0.00000000
Si      -1.97526024       0.24006573       1.36966582       0.00000000
Si      -1.57898970      -1.80390573       2.53483972       0.00000000
Si      -2.26598787      -1.56186891      -2.15691666       0.00000000
Si      -0.77859684       3.31499871      -0.89312572       0.00000000
Si       1.27855323       0.11774412       3.45125241       0.00000000
Si       2.84781780      -0.98217297      -2.12730059       0.00000000
Si      -0.33417306      -3.00965895      -2.21047325       0.00000000
