10
Lattice="16.28999089631971 0.0 0.0 0.0 16.28999089631971 0.0 0.0 0.0 34.397273925272025" Properties=species:S:1:pos:R:3:initial_magmoms:R:1 pbc="T T T"
Si      -2.28957579       0.10894752       0.44100770       0.00000000
Si       0.14258637       1.62961902      -1.67958543       0.00000000
Si       1.86991837       0.09853821       1.43557103       0.00000000
Si       0.06046848      -2.39332680       0.00055036       0.00000000
Si      -0.33041007       3.50320541      -0.21205931       0.00000000
Si       2.55634802       1.36941885      -2.06167056       0.00000000
Si       3.33610145      -1.22461704       0.18388793       0.00000000
Si      -1.06855884      -0.47096019       3.45410738       0.00000000
Si       1.19198395      -1.08375741       3.28968832       0.00000000
Si      -3.29369139       0.14812497      -1.73417393       0.00000000
