10
Lattice="16.28999089631971 0.0 0.0 0.0 16.28999089631971 0.0 0.0 0.0 34.397273925272025" Properties=species:S:1:pos:R:3:initial_magmoms:R:1 pbc="T T T"
Si       1.28446650      -1.47095442       1.27868498       0.00000000
Si      -0.26345817       1.94719487       1.26454769       0.00000000
Si      -1.56278115      -1.64854800      -0.64608436       0.00000000
Si       1.52472771       0.83075742      -1.69533939       0.00000000
Si       0.09088191      -3.03927417      -1.58399535       0.00000000
Si       2.04644754       2.26607162       1.70971746       0.00000000
Si       2.86192724       0.04469976       2.12220980       0.00000000
Si       2.09450304      -2.87404470      -0.39257631       0.00000000
Si       0.70714890       0.13670568      -3.74521168       0.00000000
Si      -2.88383499      -0.84766644      -2.44798656       0.00000000
