10
Lattice="16.28999089631971 0.0 0.0 0.0 16.28999089631971 0.0 0.0 0.0 34.397273925272025" Properties=species:S:1:pos:R:3:initial_magmoms:R:1 pbc="T T T"
Si       1.51799994      -1.12997214       1.46030268       0.00000000
Si       1.11179250       1.96964019      -0.97137956       0.00000000
Si      -1.77070019       1.33615467       1.21628829       0.00000000
Si      -0.02955006      -2.57662188      -1.22722662       0.00000000
Si      -1.64364308      -1.34741106      -2.69585345       0.00000000
Si       1.51611030       0.90464886      -3.03628346       0.00000000
Si       3.10632381      -0.39016179      -1.85057437       0.00000000
Si      -2.28104960      -0.08946468       3.04835691       0.00000000
Si      -3.53580056       1.42405551      -0.42236436       0.00000000
Si       1.72902060      -0.02269197       3.44124280       0.00000000
