10
Lattice="16.28999089631971 0.0 0.0 0.0 16.28999089631971 0.0 0.0 0.0 34.397273925272025" Properties=species:S:1:pos:R:3:initial_magmoms:R:1 pbc="T T T"
Si       1.24336683      -1.42482114       1.46449915       0.00000000
Si      -2.47301911      -0.05911641       0.27665743       0.00000000
Si       0.79459362       2.22257502       0.91988681       0.00000000
Si      -1.20405906       2.30521419      -0.35649355       0.00000000
Si      -0.05885577      -1.69324776      -2.83812066       0.00000000
Si       3.33062082      -1.20474324       0.35178112       0.00000000
Si      -2.94134846      -2.32673328      -0.65045281       0.00000000
Si       1.33239168      -0.51750072       3.61329806       0.00000000
Si      -2.86969690       0.15578127       2.63545181       0.00000000
Si       3.48174315      -0.19209168      -1.79099826       0.00000000
