10
Lattice="16.28999089631971 0.0 0.0 0.0 16.28999089631971 0.0 0.0 0.0 34.397273925272025" Properties=species:S:1:pos:R:3:initial_magmoms:R:1 pbc="T T T"
Si      -1.36123380      -1.33810947      -1.37389668       0.00000000
Si       1.36298267       1.36533006      -1.37069773       0.00000000
Si      -1.28631818       1.32460506       1.52565754       0.00000000
Si       0.78318899      -1.88841825       1.27548603       0.00000000
Si      -2.17649943      -0.40099464       2.95029023       0.00000000
Si      -0.11920045      -1.64035413       3.40698309       0.00000000
Si       2.70117359      -2.70311373       0.00512520       0.00000000
Si      -2.71260333      -2.71039536       0.00237341       0.00000000
Si      -2.70537057       2.72813517       0.02820578       0.00000000
Si       0.00346977      -2.70456354      -2.73011316       0.00000000
