10
Lattice="16.28999089631971 0.0 0.0 0.0 16.28999089631971 0.0 0.0 0.0 34.51007289658418" Properties=species:S:1:pos:R:3:initial_magmoms:R:1 pbc="T T T"
Si      -0.84174503       1.73379357      -1.34347789       0.00000000
Si       0.92072709       1.47921345       1.60748009       0.00000000
Si       1.76485860      -1.07730657      -1.29160922       0.00000000
Si      -2.13269429      -1.14914547       0.78431087       0.00000000
Si      -2.14289607       0.29278017      -2.75497517       0.00000000
Si       0.51530157      -2.51864577      -2.62004071       0.00000000
Si      -0.92975664       1.81640016       3.08050887       0.00000000
Si       1.77256377       3.38028156       0.34389307       0.00000000
Si      -1.84887428       3.44823692       0.07637083       0.00000000
Si      -2.57713406       0.08415414       2.95727333       0.00000000
