10
Lattice="16.28999089631971 0.0 0.0 0.0 16.28999089631971 0.0 0.0 0.0 34.51007289658418" Properties=species:S:1:pos:R:3:initial_magmoms:R:1 pbc="T T T"
Si      -1.38759395       1.30106601      -1.34896499       0.00000000
Si       1.34407519      -1.44054099      -1.34610066       0.00000000
Si       1.30115104       1.44101340       1.41149728       0.00000000
Si      -1.55116184      -0.99310356       1.57845711       0.00000000
Si       2.14289607      -0.29278017       2.75497517       0.00000000
Si      -0.02283399       2.64675033      -2.72011998       0.00000000
Si      -2.86154573       2.49176727       0.20892410       0.00000000
Si      -2.56146764      -2.81724147       0.30644962       0.00000000
Si       0.01020178      -1.44192564       3.53928603       0.00000000
Si       2.69818959      -0.07239276      -2.71563366       0.00000000
