10
Lattice="16.28999089631971 0.0 0.0 0.0 16.28999089631971 0.0 0.0 0.0 34.51007289658418" Properties=species:S:1:pos:R:3:initial_magmoms:R:1 pbc="T T T"
Si      -1.23913373       1.90009559      -0.56952005       0.00000000
Si       0.38616422       0.99152343       2.09679869       0.00000000
Si       1.85048373      -0.33718671      -1.47302877       0.00000000
Si      -1.64737742      -1.73224602      -0.12323554       0.00000000
Si      -0.91911764       1.63183676      -3.00413803       0.00000000
Si       0.83732718       2.88543860      -1.97473649       0.00000000
Si       1.41490542      -0.75160431       3.27110811       0.00000000
Si       0.92975664      -1.81640016      -3.08050887       0.00000000
Si      -0.04291112       3.82841783       0.28201647       0.00000000
Si      -1.20729914      -3.43055997       1.43548179       0.00000000
