10
Lattice="16.28999089631971 0.0 0.0 0.0 16.28999089631971 0.0 0.0 0.0 34.51007289658418" Properties=species:S:1:pos:R:3:initial_magmoms:R:1 pbc="T T T"
Si       1.40304955       1.85806998      -0.01939467       0.00000000
Si      -1.64626644       0.70387461       1.51640796       0.00000000
Si       1.49068976      -1.43931924       1.11550422       0.00000000
Si      -1.21915500      -0.82088568      -1.85502099       0.00000000
Si       0.19861745      -1.70554671       3.02097896       0.00000000
Si      -3.35689563      -0.81450000       1.10073390       0.00000000
Si      -0.69307597       0.37201473       3.62759736       0.00000000
Si       0.37430836       3.60119772      -1.19370409       0.00000000
Si      -0.19403834      -2.74502790      -2.68202083       0.00000000
Si      -3.27761220      -1.71795969      -1.05259232       0.00000000
