10
Lattice="16.28999089631971 0.0 0.0 0.0 16.28999089631971 0.0 0.0 0.0 34.51007289658418" Properties=species:S:1:pos:R:3:initial_magmoms:R:1 pbc="T T T"
Si      -1.34708526      -1.35054526       1.39022181       0.00000000
Si       1.37582082       1.35721764       1.39122260       0.00000000
Si       1.16440920      -1.59937663      -1.38246739       0.00000000
Si      -1.51549128       1.36492281      -1.49587791       0.00000000
Si      -2.70835911      -2.71287863      -0.00199123       0.00000000
Si      -2.70909216       2.71353933       0.02569621       0.00000000
Si       2.71673217       2.71606428       0.03857193       0.00000000
Si      -2.70000234       0.00048870       2.75392261       0.00000000
Si       0.01653435      -2.71606454       2.75226613       0.00000000
Si       0.01505196       2.71650411       2.75185201       0.00000000
