10
Lattice="16.28999089631971 0.0 0.0 0.0 16.28999089631971 0.0 0.0 0.0 34.51007289658418" Properties=species:S:1:pos:R:3:initial_magmoms:R:1 pbc="T T T"
Si       1.56704913      -1.13970411       1.39625417       0.00000000
Si      -1.16440920       1.59937663       1.38246739       0.00000000
Si       1.86715980       1.21923319      -1.18401227       0.00000000
Si      -2.30448114      -2.32813326      -0.01713771       0.00000000
Si      -1.84697649      -0.21918195      -2.78410656       0.00000000
Si       0.47177469       0.77373428      -3.33129858       0.00000000
Si       0.21356190      -2.47769175       2.77907357       0.00000000
Si      -2.51149446       0.24883138       2.77268920       0.00000000
Si       3.08056932      -2.48344212      -0.09842968       0.00000000
Si      -2.67990048       2.96429945      -0.11341052       0.00000000
