10
Lattice="16.28999089631971 0.0 0.0 0.0 16.28999089631971 0.0 0.0 0.0 34.51007289658418" Properties=species:S:1:pos:R:3:initial_magmoms:R:1 pbc="T T T"
Si      -0.15809445      -1.44608448      -1.78389569       0.00000000
Si      -1.12181085      -0.99495247       1.77606189       0.00000000
Si      -1.23450507       1.92476124      -0.61572906       0.00000000
Si       2.28718116       0.03523527       0.62200990       0.00000000
Si      -1.19513214      -0.09795177      -3.31379709       0.00000000
Si       0.41352165      -2.69492705       2.28587949       0.00000000
Si      -1.11215088       0.72049041       3.43075179       0.00000000
Si      -3.36713974       1.59699015       0.40104178       0.00000000
Si       2.63829582      -2.00084043       1.77899525       0.00000000
Si       1.90444761      -1.85089749      -2.70410729       0.00000000
