10
Lattice="16.28999089631971 0.0 0.0 0.0 16.28999089631971 0.0 0.0 0.0 34.51007289658418" Properties=species:S:1:pos:R:3:initial_magmoms:R:1 pbc="T T T"
Si       1.35773892      -1.35604476       1.35962861       0.00000000
Si      -1.35656604       1.35860229       1.36038783       0.00000000
Si       1.36611198       1.37401263      -1.34873723       0.00000000
Si      -1.36640520      -1.35900954      -1.36652718       0.00000000
Si       2.68957674      -0.01309716      -2.70143276       0.00000000
Si      -0.02976183       2.69016318      -2.71373561       0.00000000
Si      -2.71121963      -2.71593396       0.00213963       0.00000000
Si      -2.71418441       0.00009774       2.71722113       0.00000000
Si      -0.00016290      -2.71432125       2.71742819       0.00000000
Si      -2.71433265       2.71767699       0.00013804       0.00000000
