10
Lattice="16.28999089631971 0.0 0.0 0.0 16.28999089631971 0.0 0.0 0.0 34.51007289658418" Properties=species:S:1:pos:R:3:initial_magmoms:R:1 pbc="T T T"
Si      -1.34091135      -1.35884664       1.35265067       0.00000000
Si      -1.36984239       1.34338743      -1.34778130       0.00000000
Si       1.36660068      -1.21622769      -1.47118939       0.00000000
Si       1.37186235       1.35739683       1.35406558       0.00000000
Si       0.10546146       2.46397653      -2.81014442       0.00000000
Si       2.72189610      -2.68543908      -0.01311038       0.00000000
Si      -2.70168021       0.00043983       2.71328008       0.00000000
Si      -2.69330715       2.73049722       0.00491424       0.00000000
Si       0.01257588       2.71581993       2.71338361       0.00000000
Si       0.01316232      -2.71625976       2.71372871       0.00000000
