10
Lattice="16.28999089631971 0.0 0.0 0.0 16.28999089631971 0.0 0.0 0.0 34.51007289658418" Properties=species:S:1:pos:R:3:initial_magmoms:R:1 pbc="T T T"
Si      -1.35715248      -1.35773892      -1.35572897       0.00000000
Si      -1.35659862       1.35795069       1.35710938       0.00000000
Si       1.35799956      -1.35728280       1.35707486       0.00000000
Si       1.35790182       1.35827649      -1.35779958       0.00000000
Si      -2.71105673      -0.00161271      -2.71528856       0.00000000
Si      -0.00423540      -2.70877288      -2.71942977       0.00000000
Si      -2.71402151       2.71441899      -0.00020706       0.00000000
Si      -2.71350512       0.00084708       2.71494346       0.00000000
Si      -2.71478877      -2.71407690       0.00020706       0.00000000
Si       0.00066789      -2.71584762       2.71366659       0.00000000
