10
Lattice="16.28999089631971 0.0 0.0 0.0 16.28999089631971 0.0 0.0 0.0 34.51007289658418" Properties=species:S:1:pos:R:3:initial_magmoms:R:1 pbc="T T T"
Si      -1.36956546      -1.33522614       1.36059489       0.00000000
Si       1.35482301      -1.35459495      -1.36045685       0.00000000
Si      -1.36210464       1.36249560      -1.35924900       0.00000000
Si       1.37051028       1.34638479       1.38775434       0.00000000
Si      -0.08154774       2.61495225       2.74828021       0.00000000
Si       2.70896184      -2.70705591      -0.00241571       0.00000000
Si      -0.00296478      -2.71120986      -2.71697956       0.00000000
Si       2.71195920       0.00346977      -2.71649642       0.00000000
Si      -2.72375316      -2.70962973      -0.00117334       0.00000000
Si      -2.71883358       0.00417024      -2.71711760       0.00000000
