10
Lattice="16.28999089631971 0.0 0.0 0.0 16.28999089631971 0.0 0.0 0.0 34.51007289658418" Properties=species:S:1:pos:R:3:initial_magmoms:R:1 pbc="T T T"
Si      -1.05741648       1.91317905      -0.88283718       0.00000000
Si       1.86919605      -0.52608555      -1.38178409       0.00000000
Si       0.85291182       0.95102649       2.04382570       0.00000000
Si      -1.80415008      -1.67837499      -0.03920346       0.00000000
Si       2.71120986      -0.54750690       1.98270833       0.00000000
Si      -0.95630445       1.41796305      -3.15850168       0.00000000
Si      -3.33681916       1.74659751      -0.32501605       0.00000000
Si       3.87335475      -0.38864682      -0.12423633       0.00000000
Si      -3.79629165      -0.52965306      -0.70776748       0.00000000
Si       2.69524566       1.16010864      -2.74517430       0.00000000
