10
Lattice="16.28999089631971 0.0 0.0 0.0 16.28999089631971 0.0 0.0 0.0 34.51007289658418" Properties=species:S:1:pos:R:3:initial_magmoms:R:1 pbc="T T T"
Si      -1.34837217      -1.34400645      -1.35381021       0.00000000
Si       1.33758819       1.35159759      -1.36330739       0.00000000
Si      -1.35508365       1.35394335       1.35479720       0.00000000
Si       1.35751086      -1.35868374       1.35465916       0.00000000
Si       2.65142556      -0.00420282      -2.75206252       0.00000000
Si      -2.71277370       2.70790299      -0.00552161       0.00000000
Si       0.00180819       2.71256193       2.71259678       0.00000000
Si      -2.71371852      -0.00245979       2.71187206       0.00000000
Si       2.71327869       2.71443528      -0.00628084       0.00000000
Si       2.71599912      -0.00244350       2.71211363       0.00000000
