10
Lattice="16.28999089631971 0.0 0.0 0.0 16.28999089631971 0.0 0.0 0.0 34.51007289658418" Properties=species:S:1:pos:R:3:initial_magmoms:R:1 pbc="T T T"
Si      -1.35584928      -1.35615879       1.35748899       0.00000000
Si      -1.35687555       1.35746199      -1.35741997       0.00000000
Si       1.35803214      -1.35734796      -1.35738546       0.00000000
Si       1.35672894       1.35832536       1.35786860       0.00000000
Si      -2.71420722       0.00050499      -2.71397718       0.00000000
Si       0.00175932       2.71386513      -2.71449483       0.00000000
Si      -2.71440270      -2.71446786       0.00017255       0.00000000
Si       0.00009774      -2.71414206      -2.71473640       0.00000000
Si       2.71435383       0.00123804      -2.71463287       0.00000000
Si      -2.71440270       2.71521720      -0.00003451       0.00000000
