10
Lattice="16.28999089631971 0.0 0.0 0.0 16.28999089631971 0.0 0.0 0.0 34.51007289658418" Properties=species:S:1:pos:R:3:initial_magmoms:R:1 pbc="T T T"
Si       1.35508365      -1.35394335      -1.35479720       0.00000000
Si      -1.35769005       1.35395964      -1.36031881       0.00000000
Si      -1.35863487      -1.35640314       1.35707486       0.00000000
Si       1.35689184       1.35861858       1.35779958       0.00000000
Si       0.00671148      -2.69794980      -2.70860741       0.00000000
Si       2.69267184      -0.00234576      -2.71810459       0.00000000
Si       2.71259451      -2.71262709      -0.00013804       0.00000000
Si       2.71368594       0.00131949       2.71456385       0.00000000
Si      -0.00175932      -2.71386513       2.71449483       0.00000000
Si       2.71068858       2.71854036       0.00027608       0.00000000
