10
Lattice="16.28999089631971 0.0 0.0 0.0 16.28999089631971 0.0 0.0 0.0 34.51007289658418" Properties=species:S:1:pos:R:3:initial_magmoms:R:1 pbc="T T T"
Si      -0.62711613      -1.94968494       1.21644624       0.00000000
Si      -0.75553020       2.17823364       0.82144372       0.00000000
Si       2.46055563      -0.18593406       0.30641511       0.00000000
Si      -0.88488909      -1.40185224      -2.03609544       0.00000000
Si       0.71698806      -1.74158019       3.14252350       0.00000000
Si       0.26614602      -3.65687694      -0.14742711       0.00000000
Si       2.67481800      -2.03476761       1.87379448       0.00000000
Si      -1.91158263       0.30866292      -3.34050790       0.00000000
Si      -1.07074170       2.05804602       3.22286300       0.00000000
Si      -2.75571414       2.86518294      -0.44141859       0.00000000
