10
Lattice="16.28999089631971 0.0 0.0 0.0 16.28999089631971 0.0 0.0 0.0 34.51007289658418" Properties=species:S:1:pos:R:3:initial_magmoms:R:1 pbc="T T T"
Si      -2.25184815       0.57435282      -0.01742760       0.00000000
Si       0.58968171       0.08904114       2.27021190       0.00000000
Si       0.85382406       1.73312568      -1.37909230       0.00000000
Si       0.09622503      -2.32042905      -0.74369249       0.00000000
Si      -2.48815089       0.66484377      -2.33519441       0.00000000
Si       2.89843083      -0.22928175       2.07547145       0.00000000
Si      -3.14721171      -1.24093962       1.17417138       0.00000000
Si      -0.49028013       1.52502093      -3.30516957       0.00000000
Si       0.72578466      -3.39995106       1.25934228       0.00000000
Si       0.27155430      -2.05674282       3.19411609       0.00000000
