10
Lattice="16.28999089631971 0.0 0.0 0.0 16.28999089631971 0.0 0.0 0.0 34.51007289658418" Properties=species:S:1:pos:R:3:initial_magmoms:R:1 pbc="T T T"
Si      -0.20992923       1.39132890       1.84225471       0.00000000
Si      -2.05465770      -1.01718018      -0.36049242       0.00000000
Si       0.17327673       1.77044607      -1.50218980       0.00000000
Si       1.55755206      -1.86134427      -0.13362308       0.00000000
Si      -0.78812649      -1.03412178      -2.64650995       0.00000000
Si       1.22855922       0.21807423      -2.87931503       0.00000000
Si      -1.02187170      -0.50339358       2.99117746       0.00000000
Si      -1.88338464      -2.22586560       1.66878897       0.00000000
Si       2.84467383      -1.13639040      -1.90364570       0.00000000
Si      -3.55721798       0.94446162      -0.25817000       0.00000000
