10
Lattice="16.28999089631971 0.0 0.0 0.0 16.28999089631971 0.0 0.0 0.0 34.51007289658418" Properties=species:S:1:pos:R:3:initial_magmoms:R:1 pbc="T T T"
Si      -1.35402480       1.35476992      -1.35852429       0.00000000
Si       1.35420399       1.34582020       1.36884281       0.00000000
Si       1.36075257      -1.35870003      -1.35724742       0.00000000
Si      -1.34030862      -1.35553977       1.38702963       0.00000000
Si      -2.71142163       2.71175462       0.00234669       0.00000000
Si      -2.71158453      -0.00183094      -2.71480542       0.00000000
Si       0.00330687       2.71333475      -2.71511601       0.00000000
Si      -2.71088406      -2.71800279       0.00379611       0.00000000
Si       0.00311139      -2.71713942      -2.71508150       0.00000000
Si       2.72313414       2.71020707      -0.00013804       0.00000000
