10
Lattice="16.28999089631971 0.0 0.0 0.0 16.28999089631971 0.0 0.0 0.0 34.51007289658418" Properties=species:S:1:pos:R:3:initial_magmoms:R:1 pbc="T T T"
Si      -1.35871632       1.35561145       1.36266550       0.00000000
Si       1.35786924      -1.36015200       1.36321766       0.00000000
Si       1.35001746       1.38643213      -1.36417359       0.00000000
Si      -1.35715248      -1.38327382      -1.37584836       0.00000000
Si       2.70223407      -0.01776262      -2.61719708       0.00000000
Si       2.71272483       2.71268248       0.00490043       0.00000000
Si      -2.71278999       2.71302457       0.00158746       0.00000000
Si       2.71339272      -2.71613011       0.00893811       0.00000000
Si      -2.71063971      -2.72126146       0.00697104       0.00000000
Si       2.71407690      -0.00050825       2.71963683       0.00000000
