10
Lattice="16.28999089631971 0.0 0.0 0.0 16.28999089631971 0.0 0.0 0.0 34.51007289658418" Properties=species:S:1:pos:R:3:initial_magmoms:R:1 pbc="T T T"
Si       1.35221661      -1.40419474      -1.25302349       0.00000000
Si       1.36270737       1.32625035       1.36907402       0.00000000
Si      -1.35001746      -1.38643213       1.36417359       0.00000000
Si      -1.35529542       1.46921139      -1.45807900       0.00000000
Si      -0.48711987      -2.08740549      -2.65472473       0.00000000
Si      -2.40705927      -0.41076864      -2.59194121       0.00000000
Si      -2.72189610       2.68543908       0.01311038       0.00000000
Si       0.00807984       2.68442910       2.72607987       0.00000000
Si       2.72007162       2.69480583      -0.02385683       0.00000000
Si      -2.70873378      -0.03082068       2.72683909       0.00000000
