10
Lattice="16.28999089631971 0.0 0.0 0.0 16.28999089631971 0.0 0.0 0.0 34.51007289658418" Properties=species:S:1:pos:R:3:initial_magmoms:R:1 pbc="T T T"
Si       0.51263001      -1.18584684      -1.96859370       0.00000000
Si       1.88432946       0.91564461       1.26855100       0.00000000
Si      -0.93090834      -1.89091551       1.26720855       0.00000000
Si      -1.68997021       1.81286523      -0.08479130       0.00000000
Si      -2.02615739      -0.45107010       2.79390397       0.00000000
Si       0.69072858       2.26426113       2.79012512       0.00000000
Si      -3.37723370       0.85045203       1.33622529       0.00000000
Si      -1.86292815      -1.84105182      -2.66607717       0.00000000
Si       2.71725345      -2.26783678      -1.40214505       0.00000000
Si      -0.66962000       3.54276549       1.29979298       0.00000000
