10
Lattice="16.28999089631971 0.0 0.0 0.0 16.28999089631971 0.0 0.0 0.0 34.51007289658418" Properties=species:S:1:pos:R:3:initial_magmoms:R:1 pbc="T T T"
Si      -0.75533816       2.13638952      -0.68519788       0.00000000
Si      -0.45389171      -1.46028677      -1.89122207       0.00000000
Si       2.37555816       0.65520498       0.69748347       0.00000000
Si      -0.90808949      -0.90151304       2.29540427       0.00000000
Si      -1.26780527      -3.01510211       1.11850660       0.00000000
Si       0.03512173      -3.49884995      -0.82099509       0.00000000
Si       0.99929262       2.94800619      -2.03699270       0.00000000
Si       1.86292815       1.84105182       2.66607717       0.00000000
Si       2.99143419       1.79928426      -1.36842869       0.00000000
Si      -2.67268745       0.84280062       2.73986369       0.00000000
