10
Lattice="16.28999089631971 0.0 0.0 0.0 16.28999089631971 0.0 0.0 0.0 34.51007289658418" Properties=species:S:1:pos:R:3:initial_magmoms:R:1 pbc="T T T"
Si      -1.41472134       1.28524842       1.31448941       0.00000000
Si      -1.36340784      -1.34988714      -1.35341680       0.00000000
Si       1.34436483       1.37171574      -1.35383092       0.00000000
Si       1.29666771      -1.38859218       1.45194311       0.00000000
Si       0.53019063       1.91264148       2.55654214       0.00000000
Si      -0.57902805      -2.23735005       2.62200778       0.00000000
Si       2.43248796       0.34015149       2.80121869       0.00000000
Si      -2.20494924      -0.33633963       3.02570684       0.00000000
Si       2.70308115       0.01088172      -2.71145794       0.00000000
Si      -0.01159848      -2.70514998      -2.71211363       0.00000000
