10
Lattice="16.28999089631971 0.0 0.0 0.0 16.28999089631971 0.0 0.0 0.0 34.51007289658418" Properties=species:S:1:pos:R:3:initial_magmoms:R:1 pbc="T T T"
Si       1.56670704       1.05404445      -1.48310572       0.00000000
Si      -1.13582025      -1.72874367      -1.34927558       0.00000000
Si      -1.90229733       1.57248999      -0.24467655       0.00000000
Si       1.55356101      -0.34811730       2.18031311       0.00000000
Si      -1.30184793      -1.88967258       2.74759001       0.00000000
Si       0.25386336       2.40518592      -2.80273714       0.00000000
Si      -2.43248796      -0.34015149      -2.80121869       0.00000000
Si       2.66789475       2.72236851      -0.24560833       0.00000000
Si       3.32312742       1.25990118       1.45691256       0.00000000
Si      -3.01151601      -2.57750154      -0.17921091       0.00000000
