10
Lattice="16.28999089631971 0.0 0.0 0.0 16.28999089631971 0.0 0.0 0.0 34.51007289658418" Properties=species:S:1:pos:R:3:initial_magmoms:R:1 pbc="T T T"
Si      -0.91370610       0.37090701       2.12164596       0.00000000
Si       1.42368084       1.72260234      -0.72498802       0.00000000
Si      -1.87774830       0.21642894      -1.42433503       0.00000000
Si       0.69427980      -2.26737252      -0.30914141       0.00000000
Si      -1.47437532      -3.16672713      -0.44096996       0.00000000
Si       3.15985275       1.64393793       0.78613990       0.00000000
Si       2.19514266       1.04518269      -2.82889579       0.00000000
Si      -3.13020495      -0.51851070       1.99043859       0.00000000
Si      -1.44901179       2.11568004      -2.77592279       0.00000000
Si      -3.75976458       0.56101131      -0.01259618       0.00000000
