10
Lattice="16.28999089631971 0.0 0.0 0.0 16.28999089631971 0.0 0.0 0.0 34.51007289658418" Properties=species:S:1:pos:R:3:initial_magmoms:R:1 pbc="T T T"
Si       2.14762473      -0.68175279       0.41243011       0.00000000
Si      -0.43895034       1.25323857      -1.89777899       0.00000000
Si      -0.87974145      -2.16083592      -0.33757772       0.00000000
Si      -1.43842329       1.23123078       1.49007676       0.00000000
Si      -2.65544919       0.36382086      -2.02898636       0.00000000
Si       2.68452684       1.16486532       1.70635151       0.00000000
Si      -3.10967955       1.70702910      -0.09421255       0.00000000
Si       1.88786439      -2.63296899       1.70279697       0.00000000
Si      -2.26447290      -0.45496341       2.85346697       0.00000000
Si      -2.53848699      -2.29250799       1.38730571       0.00000000
