10
Lattice="16.28999089631971 0.0 0.0 0.0 16.28999089631971 0.0 0.0 0.0 34.51007289658418" Properties=species:S:1:pos:R:3:initial_magmoms:R:1 pbc="T T T"
Si      -1.61521866       0.22472055      -1.67474026       0.00000000
Si      -1.47530385      -1.12058910       1.46236313       0.00000000
Si       1.20102912       1.60632432       1.41680635       0.00000000
Si       2.72253141      -2.24500635      -0.18034974       0.00000000
Si      -0.32809689       0.94967442      -3.44476289       0.00000000
Si       2.02251753       1.27835775      -2.83755782       0.00000000
Si      -0.10546146      -2.46397653       2.81014442       0.00000000
Si      -2.43644643      -2.14312869      -1.94433310       0.00000000
Si       2.62003473       0.26031420       2.79346224       0.00000000
Si      -3.32620623      -1.93580586       0.21244072       0.00000000
