10
Lattice="16.28999089631971 0.0 0.0 0.0 16.28999089631971 0.0 0.0 0.0 34.51007289658418" Properties=species:S:1:pos:R:3:initial_magmoms:R:1 pbc="T T T"
Si      -1.31383737       1.35580041       1.38875513       0.00000000
Si       1.13204097       1.71351252      -1.20111237       0.00000000
Si       1.41900561      -1.34601012       1.37665589       0.00000000
Si      -1.20102912      -1.60632432      -1.41680635       0.00000000
Si      -2.58173694       2.69338860      -0.10456903       0.00000000
Si       2.82996396      -2.52620433      -0.11910813       0.00000000
Si      -0.59352615       3.51543087      -1.33822687       0.00000000
Si       2.61091233       0.63851913      -2.70679360       0.00000000
Si      -2.67633297      -2.72691342       0.04555677       0.00000000
Si      -2.65142556       0.00420282       2.75206252       0.00000000
