10
Lattice="16.28999089631971 0.0 0.0 0.0 16.28999089631971 0.0 0.0 0.0 34.51007289658418" Properties=species:S:1:pos:R:3:initial_magmoms:R:1 pbc="T T T"
Si      -1.35751086       1.35868374      -1.35465916       0.00000000
Si      -1.35632169      -1.35858600       1.35724742       0.00000000
Si       1.35848826       1.35624024       1.35745448       0.00000000
Si       1.35928647      -1.35842310      -1.35931802       0.00000000
Si      -2.70588303       0.01467729      -2.70846937       0.00000000
Si      -2.71259451       2.71262709       0.00013804       0.00000000
Si      -0.01992267       2.71028133      -2.71796655       0.00000000
Si       0.00109143       2.71394658       2.71470189       0.00000000
Si      -2.71435383      -0.00123804       2.71463287       0.00000000
Si      -0.01257588      -2.71581993      -2.71338361       0.00000000
