10
Lattice="16.28999089631971 0.0 0.0 0.0 16.28999089631971 0.0 0.0 0.0 34.51007289658418" Properties=species:S:1:pos:R:3:initial_magmoms:R:1 pbc="T T T"
Si      -1.19360088       1.34861652       1.52157412       0.00000000
Si       1.01147868       1.87931214      -1.06325387       0.00000000
Si      -1.88432946      -0.91564461      -1.26855100       0.00000000
Si       1.51549128      -1.36492281       1.49587791       0.00000000
Si      -2.55394946       2.62712088       0.03124199       0.00000000
Si      -2.53841531      -0.00830790       2.89024093       0.00000000
Si      -0.71847045       3.67531722      -1.14802280       0.00000000
Si      -3.57429967       0.89722062      -1.35334229       0.00000000
Si       2.86238106       2.69452890       0.18666854       0.00000000
Si       0.17280432       2.70762606       2.88810130       0.00000000
