10
Lattice="16.28999089631971 0.0 0.0 0.0 16.28999089631971 0.0 0.0 0.0 34.51007289658418" Properties=species:S:1:pos:R:3:initial_magmoms:R:1 pbc="T T T"
Si       1.35213516      -1.35845568      -1.36204432       0.00000000
Si      -1.36272366       1.35720135      -1.36138863       0.00000000
Si       1.35537687       1.33646418       1.39151594       0.00000000
Si      -1.34601012      -1.37308410       1.38585628       0.00000000
Si       2.70699075      -2.71642266      -0.00096628       0.00000000
Si       2.71067229       2.71640637      -0.00010353       0.00000000
Si       2.71028133      -0.00006516      -2.71853251       0.00000000
Si      -0.00464265       2.71467963      -2.71894663       0.00000000
Si      -2.71968066       2.71415835       0.00113883       0.00000000
Si      -0.00456120      -2.71599912      -2.71839447       0.00000000
