10
Lattice="16.28999089631971 0.0 0.0 0.0 16.28999089631971 0.0 0.0 0.0 34.51007289658418" Properties=species:S:1:pos:R:3:initial_magmoms:R:1 pbc="T T T"
Si      -1.93020210       0.25661637      -1.30558581       0.00000000
Si      -0.36659016       0.11647350       2.34023288       0.00000000
Si       0.53781435      -2.34215991      -0.11384879       0.00000000
Si       1.55359359       1.80566505      -0.36608306       0.00000000
Si       2.27398626      -2.42082432       1.39727912       0.00000000
Si       1.62929322      -0.98684820       3.18055363       0.00000000
Si      -2.33487828      -1.94908221      -2.16478357       0.00000000
Si       3.62527434      -1.15541712      -0.17486264       0.00000000
Si       1.76365314       3.11365431       1.60323535       0.00000000
Si      -3.88803204       0.54980379      -0.03685678       0.00000000
