10
Lattice="16.28999089631971 0.0 0.0 0.0 16.28999089631971 0.0 0.0 0.0 34.51007289658418" Properties=species:S:1:pos:R:3:initial_magmoms:R:1 pbc="T T T"
Si       1.51215183       1.00887228       1.46298634       0.00000000
Si      -2.14827633       0.29641284       0.92166103       0.00000000
Si       0.49207203      -2.30513274       0.08617170       0.00000000
Si       0.41272344       0.78231096      -2.24325952       0.00000000
Si       0.25386336       2.88895005       1.90757986       0.00000000
Si      -0.25832682      -2.81439072      -2.08689429       0.00000000
Si       1.21850829      -1.28531358      -3.16436839       0.00000000
Si       3.20492718       1.71385461       0.06156600       0.00000000
Si       2.16406134       2.27856375      -1.94702489       0.00000000
Si      -3.57772383      -0.64707138      -0.75725495       0.00000000
