10
Lattice="16.28999089631971 0.0 0.0 0.0 16.28999089631971 0.0 0.0 0.0 34.51007289658418" Properties=species:S:1:pos:R:3:initial_magmoms:R:1 pbc="T T T"
Si      -1.35767376       1.35804843       1.36135412       0.00000000
Si       1.36280511      -1.35956340       1.36038783       0.00000000
Si      -1.37569050      -1.36283769      -1.35702655       0.00000000
Si       1.38145716       1.37147139      -1.35287499       0.00000000
Si       2.73359232      -0.02122587      -2.65427127       0.00000000
Si      -2.70710478       2.70791928       0.00559063       0.00000000
Si      -2.71327869      -2.71443528       0.00628084       0.00000000
Si       2.71692765       2.71305063       0.00755771       0.00000000
Si      -2.71147050      -0.00187335       2.71887761       0.00000000
Si       0.00255753       2.71270854       2.71873957       0.00000000
