10
Lattice="16.28999089631971 0.0 0.0 0.0 16.28999089631971 0.0 0.0 0.0 34.51007289658418" Properties=species:S:1:pos:R:3:initial_magmoms:R:1 pbc="T T T"
Si      -1.36170381      -1.35495333       1.38927623       0.00000000
Si       1.35367207       1.36451556       1.39165743       0.00000000
Si      -1.26885081       1.41248961      -1.50701776       0.00000000
Si       1.34125095      -1.43366661      -1.46533993       0.00000000
Si      -2.70206130       2.69731449       0.02672462       0.00000000
Si       2.70573719       2.70441693       0.03630807       0.00000000
Si       2.70159953      -2.71217097       0.02499221       0.00000000
Si      -2.72059932      -2.70027927       0.00090071       0.00000000
Si      -0.00362128      -2.71122615       2.75107898       0.00000000
Si       2.71143869       0.00544086       2.75190722       0.00000000
