10
Lattice="16.28999089631971 0.0 0.0 0.0 16.28999089631971 0.0 0.0 0.0 34.51007289658418" Properties=species:S:1:pos:R:3:initial_magmoms:R:1 pbc="T T T"
Si      -0.04246803       0.28429308      -2.34344232       0.00000000
Si      -0.13561425      -2.36522655       0.17192928       0.00000000
Si      -1.40313915       1.35196641       1.40932314       0.00000000
Si       2.31203970       0.17436816       0.69192735       0.00000000
Si       0.71306217       2.55170537      -2.01628665       0.00000000
Si       1.92384900      -1.00642878      -2.76418936       0.00000000
Si       1.04907600      -2.93192307      -1.78241175       0.00000000
Si      -2.84573268      -0.28427679       2.32611825       0.00000000
Si       0.90525159      -2.92993569       2.18052017       0.00000000
Si       2.43142911      -1.19705436       2.68816363       0.00000000
