10
Lattice="16.28999089631971 0.0 0.0 0.0 16.28999089631971 0.0 0.0 0.0 34.51007289658418" Properties=species:S:1:pos:R:3:initial_magmoms:R:1 pbc="T T T"
Si       0.86151294       1.72247202       1.32238850       0.00000000
Si      -0.17127306       1.20868542      -2.02928139       0.00000000
Si      -1.83547901      -1.04819634       1.17926479       0.00000000
Si       1.72994913      -1.79600508       0.08476893       0.00000000
Si       1.88338464       2.22586560      -1.66878897       0.00000000
Si       2.25738675       0.40632147       2.68738688       0.00000000
Si      -0.47513043      -2.32670070       2.66959692       0.00000000
Si       2.61970893      -2.00332791      -2.07200489       0.00000000
Si       3.44093670       0.36452133      -1.80241205       0.00000000
Si       0.71847045      -3.67531722       1.14802280       0.00000000
