10
Lattice="16.28999089631971 0.0 0.0 0.0 16.28999089631971 0.0 0.0 0.0 34.51007289658418" Properties=species:S:1:pos:R:3:initial_magmoms:R:1 pbc="T T T"
Si       1.35752715       1.35667355      -1.35714389       0.00000000
Si      -1.35770634       1.35675500       1.35728193       0.00000000
Si      -1.35620766      -1.35964375      -1.35641917       0.00000000
Si       1.35803214      -1.35825033       1.35779958       0.00000000
Si      -0.00068418      -2.71562186      -2.71069872       0.00000000
Si      -0.00135207       2.71319072      -2.71473640       0.00000000
Si      -0.00122175       2.71490117       2.71439130       0.00000000
Si      -2.71489140       2.71459166       0.00006902       0.00000000
Si       2.71555929       2.71402151       0.00020706       0.00000000
Si      -2.71590138      -0.00113053       2.71373561       0.00000000
