10
Lattice="16.28999089631971 0.0 0.0 0.0 16.28999089631971 0.0 0.0 0.0 34.51007289658418" Properties=species:S:1:pos:R:3:initial_magmoms:R:1 pbc="T T T"
Si       1.76068740      -0.81886246       1.27994481       0.00000000
Si      -0.74995902       0.41864485       2.25513099       0.00000000
Si       1.42342020       1.38833969      -1.40859843       0.00000000
Si      -1.39488012      -1.48255194      -1.34247710       0.00000000
Si      -1.34166069       2.72341921       2.06397959       0.00000000
Si       2.76781665      -2.53330581      -0.13990391       0.00000000
Si      -2.62573623       0.01001672      -2.88390487       0.00000000
Si       0.07907166      -2.67325320      -2.90036619       0.00000000
Si       0.09365121       2.73192260      -2.89691518       0.00000000
Si       2.35531638       3.24818527      -0.08065009       0.00000000
