10
Lattice="16.28999089631971 0.0 0.0 0.0 16.28999089631971 0.0 0.0 0.0 34.51007289658418" Properties=species:S:1:pos:R:3:initial_magmoms:R:1 pbc="T T T"
Si       0.65523267      -1.46246733       1.70252089       0.00000000
Si      -1.10118771      -1.66832406      -1.23749740       0.00000000
Si       1.76487491       1.10051982      -1.17834710       0.00000000
Si      -1.69407855       1.79794359       0.41035951       0.00000000
Si       0.93933027       0.36386973       3.24995342       0.00000000
Si       0.32619096       2.39873508      -2.53107369       0.00000000
Si      -2.41403139      -0.31718259      -2.55712881       0.00000000
Si       2.58264333      -2.54571975       0.28129176       0.00000000
Si      -2.66789475      -2.72236851       0.24560833       0.00000000
Si      -0.86747508       3.70452519      -0.88300973       0.00000000
