10
Lattice="16.28999089631971 0.0 0.0 0.0 16.28999089631971 0.0 0.0 0.0 34.51007289658418" Properties=species:S:1:pos:R:3:initial_magmoms:R:1 pbc="T T T"
Si      -1.35856971       1.36075257      -1.29068435       0.00000000
Si      -1.37376828      -1.33522614       1.36848735       0.00000000
Si       1.33970589       1.37930688       1.36365594       0.00000000
Si       1.43321049      -1.28482488      -1.53374238       0.00000000
Si       0.51326532       2.14004988      -2.70679015       0.00000000
Si       2.70206130      -2.69731449      -0.02672462       0.00000000
Si      -0.01839141      -2.69244378       2.72452691       0.00000000
Si      -2.73500955      -2.68266978      -0.00553887       0.00000000
Si       2.56517001       0.44501022      -2.81052748       0.00000000
Si       2.69757674       0.02137248       2.72469947       0.00000000
