10
Lattice="16.28999089631971 0.0 0.0 0.0 16.28999089631971 0.0 0.0 0.0 34.51007289658418" Properties=species:S:1:pos:R:3:initial_magmoms:R:1 pbc="T T T"
Si      -1.37256282      -1.33648047       1.34896499       0.00000000
Si      -1.35485559       1.35796698      -1.36107804       0.00000000
Si       1.36122498      -1.35505107      -1.36031881       0.00000000
Si       1.36765953       1.37943720       1.37502011       0.00000000
Si      -0.05971914      -2.68762194       2.66859641       0.00000000
Si      -2.70699075       2.71642266       0.00096628       0.00000000
Si      -2.71454931      -2.71010214      -0.00334748       0.00000000
Si      -2.71155195       0.00042354      -2.71742819       0.00000000
Si       0.00317655      -2.71383255      -2.71766976       0.00000000
Si       2.71405937       2.71821456      -0.00289885       0.00000000
