10
Lattice="16.28999089631971 0.0 0.0 0.0 16.28999089631971 0.0 0.0 0.0 34.51007289658418" Properties=species:S:1:pos:R:3:initial_magmoms:R:1 pbc="T T T"
Si      -0.27396522       0.90420903       2.17772486       0.00000000
Si       0.82660347       1.90658160      -1.29336923       0.00000000
Si       1.69407855      -1.79794359      -0.41035951       0.00000000
Si      -1.98941625      -0.80550792      -1.33854295       0.00000000
Si      -2.33025192       0.14804352       1.40721803       0.00000000
Si       2.02026951       0.60079149      -2.94143320       0.00000000
Si      -0.71995284      -2.11512618      -2.96748832       0.00000000
Si       3.45895346      -0.69742377      -1.58870660       0.00000000
Si       0.59289084      -3.46626765      -1.64785690       0.00000000
Si       0.53183592      -0.62115399       3.89473998       0.00000000
