10
Lattice="16.28999089631971 0.0 0.0 0.0 16.28999089631971 0.0 0.0 0.0 34.51007289658418" Properties=species:S:1:pos:R:3:initial_magmoms:R:1 pbc="T T T"
Si       2.25230364      -0.49870206      -0.08272069       0.00000000
Si       0.18774225       2.32153677       0.26500300       0.00000000
Si      -0.61587603      -0.21942630      -2.31383266       0.00000000
Si      -1.35128808      -1.26540720       1.57214176       0.00000000
Si      -3.08745999      -1.18674279       0.06101384       0.00000000
Si       2.51706305      -0.88097949       2.25771925       0.00000000
Si      -2.31599817      -1.86416244      -2.04289393       0.00000000
Si      -2.07168075       2.96108217      -0.19122042       0.00000000
Si       3.27131612       1.29446856      -1.36442551       0.00000000
Si      -3.62527434       1.15541712       0.17486264       0.00000000
