10
Lattice="16.28999089631971 0.0 0.0 0.0 16.28999089631971 0.0 0.0 0.0 34.51007289658418" Properties=species:S:1:pos:R:3:initial_magmoms:R:1 pbc="T T T"
Si       1.35755973       1.35660086       1.35628113       0.00000000
Si      -1.35808101      -1.35706457       1.35766154       0.00000000
Si       1.35801585      -1.35783020      -1.35721291       0.00000000
Si      -1.35789693       1.35837159      -1.35717840       0.00000000
Si       2.71158453       0.00183094       2.71480542       0.00000000
Si      -0.00026064       2.71470957      -2.71311443       0.00000000
Si      -2.71454021      -0.00044966      -2.71449483       0.00000000
Si      -2.71497536       2.71485618       0.00017255       0.00000000
Si       2.71469592      -2.71530848      -0.00027608       0.00000000
Si       2.71489140       2.71516569      -0.00031059       0.00000000
