10
Lattice="16.28999089631971 0.0 0.0 0.0 16.28999089631971 0.0 0.0 0.0 34.51007289658418" Properties=species:S:1:pos:R:3:initial_magmoms:R:1 pbc="T T T"
Si       0.37238940      -1.84741632      -1.38495902       0.00000000
Si       1.11917187      -0.52707924       2.00717598       0.00000000
Si      -0.90326421       1.92643911      -1.05500803       0.00000000
Si       2.18810538       1.09296126       0.37453803       0.00000000
Si      -0.93719628      -3.36526965       0.62497777       0.00000000
Si      -0.75266316      -1.30637655       3.42328178       0.00000000
Si       2.50792695      -1.35874890      -2.47195790       0.00000000
Si       3.49103238       0.60921342      -1.56496366       0.00000000
Si       0.60742152       2.46739743      -2.96866166       0.00000000
Si      -2.41606764      -2.29027626       2.13065900       0.00000000
