10
Lattice="16.28999089631971 0.0 0.0 0.0 16.28999089631971 0.0 0.0 0.0 34.51007289658418" Properties=species:S:1:pos:R:3:initial_magmoms:R:1 pbc="T T T"
Si       1.36350558      -0.04166982      -1.87583057       0.00000000
Si       0.87272046      -1.70362449       1.37388128       0.00000000
Si      -2.25517457      -0.59680044      -0.39855705       0.00000000
Si       0.34078680       2.32324722       0.38043926       0.00000000
Si      -2.84161913       1.18760616       1.11581481       0.00000000
Si      -1.82260665       2.98077678      -0.16589001       0.00000000
Si       0.57708954       2.23275627       2.69820607       0.00000000
Si       2.92516272      -0.66202560       1.97194118       0.00000000
Si      -2.65971391      -2.52276714       0.98426234       0.00000000
Si       0.67295619      -3.74595066      -0.00859301       0.00000000
