10
Lattice="16.28999089631971 0.0 0.0 0.0 16.28999089631971 0.0 0.0 0.0 34.51007289658418" Properties=species:S:1:pos:R:3:initial_magmoms:R:1 pbc="T T T"
Si       0.10111203      -0.49521600      -2.27566450       0.00000000
Si      -2.27940268      -0.16658154       0.55782113       0.00000000
Si       1.05741648      -1.91317905       0.88283718       0.00000000
Si       0.38587752       2.23291917       0.68336885       0.00000000
Si      -1.29412647       1.05402816      -3.18652387       0.00000000
Si       1.91032830      -0.96215256       2.92666288       0.00000000
Si      -2.73887517      -2.44283211       0.17506970       0.00000000
Si      -0.74673360      -3.59155404       0.84363371       0.00000000
Si      -0.88065369       2.24986077       2.96938637       0.00000000
Si       2.92661253      -2.43926460      -0.49894691       0.00000000
