10
Lattice="16.28999089631971 0.0 0.0 0.0 16.28999089631971 0.0 0.0 0.0 34.51007289658418" Properties=species:S:1:pos:R:3:initial_magmoms:R:1 pbc="T T T"
Si      -0.86151294      -1.72247202      -1.32238850       0.00000000
Si      -1.33250571       1.36741518       1.35852429       0.00000000
Si       1.39587381      -1.31615055       1.36499838       0.00000000
Si       0.81194247       1.89472248      -1.14892276       0.00000000
Si       1.02187170       0.50339358      -2.99117746       0.00000000
Si      -1.03278600      -0.51378660      -3.35166989       0.00000000
Si      -2.68457082       0.02751381       2.71387365       0.00000000
Si       0.02976183      -2.69016318       2.71373561       0.00000000
Si      -2.55673016       2.84043843      -0.01973977       0.00000000
Si       0.86843619      -3.51847710      -1.23761956       0.00000000
