10
Lattice="16.28999089631971 0.0 0.0 0.0 16.28999089631971 0.0 0.0 0.0 34.51007289658418" Properties=species:S:1:pos:R:3:initial_magmoms:R:1 pbc="T T T"
Si       1.35733167       1.35695700       1.35655721       0.00000000
Si      -1.35761837      -1.35850455       1.35683329       0.00000000
Si       1.35656604      -1.35860229      -1.36038783       0.00000000
Si      -1.35776661       1.35907470      -1.36024979       0.00000000
Si      -0.00570150       2.69897607      -2.71559915       0.00000000
Si       2.71420722      -0.00050499       2.71397718       0.00000000
Si      -0.00019548       2.71471221       2.71394267       0.00000000
Si       2.71430496      -2.71464705      -0.00075922       0.00000000
Si      -0.00019548      -2.71497285       2.71414973       0.00000000
Si      -2.71592325       2.71324611      -0.00048314       0.00000000
