10
Lattice="16.28999089631971 0.0 0.0 0.0 16.28999089631971 0.0 0.0 0.0 34.51007289658418" Properties=species:S:1:pos:R:3:initial_magmoms:R:1 pbc="T T T"
Si      -1.35025204      -1.35169533       1.35855880       0.00000000
Si       1.35892809      -1.35627282      -1.35966312       0.00000000
Si      -1.35630377       1.35889551      -1.35973214       0.00000000
Si       1.35698958       1.35863487       1.38202566       0.00000000
Si      -2.62652532       0.07998390       2.72864397       0.00000000
Si       2.70985779      -2.71391400      -0.00120785       0.00000000
Si       2.71441899       2.71598283      -0.00227767       0.00000000
Si      -2.71476551      -2.71608057       0.00241571       0.00000000
Si      -2.71477228       0.00001629      -2.71663446       0.00000000
Si       0.00037467      -2.71458189      -2.71697956       0.00000000
