10
Lattice="16.28999089631971 0.0 0.0 0.0 16.28999089631971 0.0 0.0 0.0 34.51007289658418" Properties=species:S:1:pos:R:3:initial_magmoms:R:1 pbc="T T T"
Si       0.42541921      -2.45645055       0.36842974       0.00000000
Si      -0.44443976       1.23329961       2.17296246       0.00000000
Si       2.13269429       1.14914547      -0.78431087       0.00000000
Si      -1.56136361       0.44882208      -1.96082893       0.00000000
Si      -0.00436148      -0.46501434       3.73167980       0.00000000
Si       1.29094927       2.88293904      -2.12778875       0.00000000
Si       1.55313193      -2.92408758      -1.89322366       0.00000000
Si      -0.01020178       1.44192564      -3.53928603       0.00000000
Si       1.02075518      -2.38915656       2.90467995       0.00000000
Si       1.20293766       2.96554563       2.29619800       0.00000000
