10
Lattice="16.28999089631971 0.0 0.0 0.0 16.28999089631971 0.0 0.0 0.0 34.51007289658418" Properties=species:S:1:pos:R:3:initial_magmoms:R:1 pbc="T T T"
Si      -1.35153248       1.35366057      -1.35766154       0.00000000
Si       1.34806654       1.36565653       1.36390786       0.00000000
Si       1.36224210      -1.36003581      -1.35645368       0.00000000
Si      -1.36475996      -1.34568432       1.37115498       0.00000000
Si       0.02283399      -2.64675033       2.72011998       0.00000000
Si      -2.70920624      -0.00331588      -2.71408071       0.00000000
Si      -2.70943430       2.71525697       0.00531455       0.00000000
Si      -2.70894560      -2.71639008       0.00434827       0.00000000
Si       0.00534775       2.71188494      -2.71394267       0.00000000
Si       2.72048601       2.71061432       0.00303689       0.00000000
