10
Lattice="10.86 0.0 0.0 0.0 10.86 0.0 0.0 0.0 10.86" Properties=species:S:1:pos:R:3:initial_magmoms:R:1 pbc="T T T"
Si       1.51566504      -1.42497318      -1.05732960       0.00000000
Si      -1.19933496      -1.42497318       1.65767040       0.00000000
Si       1.51566504       1.29002682       1.65767040       0.00000000
Si      -1.54135980       1.56465450      -1.47819804       0.00000000
Si      -2.63881710       0.01875522      -2.40137406       0.00000000
Si       2.59184760      -0.11034846      -2.57745810       0.00000000
Si       0.15816504      -2.78247318      -2.41482960       0.00000000
Si      -2.55683496      -2.78247318       0.30017040       0.00000000
Si      -2.59003398       2.82809604       0.03670680       0.00000000
Si       2.79790524       2.71827972       0.22727808       0.00000000
