10
Lattice="16.28999089631971 0.0 0.0 0.0 16.28999089631971 0.0 0.0 0.0 34.56409401068381" Properties=species:S:1:pos:R:3:initial_magmoms:R:1 pbc="T T T"
Si       1.35837423       0.96061478       1.76389799       0.00000000
Si       1.98482247       0.54386934      -1.32352903       0.00000000
Si      -1.09698489      -1.52286155       1.63803969       0.00000000
Si      -1.98477360       1.17248252      -1.24475741       0.00000000
Si       3.35011995       1.54030095       0.46997900       0.00000000
Si      -2.73844674      -2.76679853       0.52382091       0.00000000
Si       0.12491172       2.46324348       3.09380755       0.00000000
Si      -2.57180004      -0.25937342       3.07767994       0.00000000
Si       1.87569576       2.52560160      -2.58684737       0.00000000
Si       3.05442387      -1.24120745      -2.45567656       0.00000000
