10
Lattice="16.28999089631971 0.0 0.0 0.0 16.28999089631971 0.0 0.0 0.0 34.56409401068381" Properties=species:S:1:pos:R:3:initial_magmoms:R:1 pbc="T T T"
Si      -1.49182191       1.20966282      -1.36037092       0.00000000
Si       1.34014572       1.37081979       1.37808502       0.00000000
Si      -1.37868786      -1.34535852       1.37639138       0.00000000
Si       1.49591070      -1.27373139      -1.55968142       0.00000000
Si      -0.20790927       2.41798986      -2.90642858       0.00000000
Si       2.68679115      -2.71182888      -0.00829539       0.00000000
Si       2.69503389       2.70933651      -0.00794283       0.00000000
Si      -2.72621295      -2.69821044       0.00411313       0.00000000
Si       2.69151525       0.01268991       2.73621273       0.00000000
Si      -0.02314809      -2.70161505       2.73645468       0.00000000
