10
Lattice="16.28999089631971 0.0 0.0 0.0 16.28999089631971 0.0 0.0 0.0 34.56409401068381" Properties=species:S:1:pos:R:3:initial_magmoms:R:1 pbc="T T T"
Si       1.81346796       1.16715244      -0.95645814       0.00000000
Si       0.81647109      -0.85146268       2.04671397       0.00000000
Si      -1.85258839       1.08194596       1.02472227       0.00000000
Si      -0.25120809      -1.99383151      -1.31291784       0.00000000
Si       0.82007118       3.00912790      -1.97233200       0.00000000
Si      -0.85398696       2.19342244       2.88323464       0.00000000
Si      -0.40203720      -2.80232050       2.48450303       0.00000000
Si       2.89391850      -1.85033290       1.56005126       0.00000000
Si      -0.24285132      -3.78310882       0.26178859       0.00000000
Si      -3.41955512      -0.63270427       1.62586133       0.00000000
