10
Lattice="16.28999089631971 0.0 0.0 0.0 16.28999089631971 0.0 0.0 0.0 34.56409401068381" Properties=species:S:1:pos:R:3:initial_magmoms:R:1 pbc="T T T"
Si      -1.66485429       1.15248492       1.21223258       0.00000000
Si       1.82886201      -0.52509186       1.43012475       0.00000000
Si      -1.35824391      -1.46069172      -1.29999087       0.00000000
Si       1.45989351       1.42361568      -1.24855947       0.00000000
Si       0.00850338       2.61798219      -2.66019242       0.00000000
Si       2.71002069      -0.09202221      -2.63865898       0.00000000
Si      -2.72223982      -0.09780516      -2.66116021       0.00000000
Si      -2.73982325       2.68374492      -0.10825480       0.00000000
Si      -0.00272043      -2.80888470      -2.64913190       0.00000000
Si      -2.65506800      -2.84263758       0.09961377       0.00000000
