10
Lattice="16.28999089631971 0.0 0.0 0.0 16.28999089631971 0.0 0.0 0.0 34.56409401068381" Properties=species:S:1:pos:R:3:initial_magmoms:R:1 pbc="T T T"
Si      -1.17393885       1.37551131       1.55358777       0.00000000
Si      -1.12515030       0.27394893      -2.09064496       0.00000000
Si      -0.59618142      -2.29076496       0.46011748       0.00000000
Si       2.24184609       0.85524129       0.32517918       0.00000000
Si       2.47808367      -0.72734850       2.03838402       0.00000000
Si      -1.82895975       3.16591263       0.05661602       0.00000000
Si      -0.30177225      -1.44837648      -3.49522683       0.00000000
Si       1.45156932      -2.62574600      -2.38838023       0.00000000
Si      -0.12290805       2.04305922      -3.27159702       0.00000000
Si      -2.86949979      -2.79924917      -0.17949144       0.00000000
