10
Lattice="16.28999089631971 0.0 0.0 0.0 16.28999089631971 0.0 0.0 0.0 34.56409401068381" Properties=species:S:1:pos:R:3:initial_magmoms:R:1 pbc="T T T"
Si       1.70562816      -1.35439132       0.90889792       0.00000000
Si      -2.02962716       0.33138747       1.19488140       0.00000000
Si      -0.99860143      -1.11147647      -1.85851237       0.00000000
Si       1.05466347       1.98607680      -0.82362826       0.00000000
Si      -1.77650758       0.79759098      -2.97569364       0.00000000
Si       1.67045805      -3.04488512      -0.83652067       0.00000000
Si       0.31969125       1.87317081      -3.08557296       0.00000000
Si       0.84219300      -1.90648223       3.01471653       0.00000000
Si       0.85398696      -2.19342244      -2.88323464       0.00000000
Si       3.44997765       1.71880677      -1.00225559       0.00000000
