10
Lattice="16.28999089631971 0.0 0.0 0.0 16.28999089631971 0.0 0.0 0.0 34.56409401068381" Properties=species:S:1:pos:R:3:initial_magmoms:R:1 pbc="T T T"
Si      -2.01212777      -1.12237353      -0.41985028       0.00000000
Si       0.86343516       0.55209091      -2.10581860       0.00000000
Si       1.76832837      -1.37299518       0.91677854       0.00000000
Si      -0.59549724       2.00954906       1.38152761       0.00000000
Si      -2.26863662      -2.08429803       1.69723622       0.00000000
Si       3.13675353       1.06057511      -1.46620969       0.00000000
Si      -0.84219300       1.90648223      -3.01471653       0.00000000
Si       3.61449036       0.07286517       0.69235375       0.00000000
Si      -3.70433690       0.49255259      -0.40135848       0.00000000
Si      -0.85731012       1.15753319       3.58540460       0.00000000
