10
Lattice="16.28999089631971 0.0 0.0 0.0 16.28999089631971 0.0 0.0 0.0 34.56409401068381" Properties=species:S:1:pos:R:3:initial_magmoms:R:1 pbc="T T T"
Si      -1.94157252      -1.30820103      -0.25442644       0.00000000
Si      -0.39944709       2.02559634       1.17113585       0.00000000
Si       0.64769040       0.50508774      -2.23139003       0.00000000
Si       1.72525761      -1.38877137       0.87032437       0.00000000
Si       2.80218951      -2.02636197      -1.11718127       0.00000000
Si       2.99152818       0.03020166      -2.23830285       0.00000000
Si      -2.73157236      -1.69745058       1.91602706       0.00000000
Si      -2.71028133       0.60810570       2.51222345       0.00000000
Si      -2.00192697       3.33114210       0.06442751       0.00000000
Si      -3.56162931      -0.18132399      -1.54733166       0.00000000
