10
Lattice="16.28999089631971 0.0 0.0 0.0 16.28999089631971 0.0 0.0 0.0 34.56409401068381" Properties=species:S:1:pos:R:3:initial_magmoms:R:1 pbc="T T T"
Si      -2.07744741       0.99887022       0.48666272       0.00000000
Si       1.16898669       1.45160436       1.47471246       0.00000000
Si       1.07043219       0.27670194      -2.11418312       0.00000000
Si      -0.23649822      -2.34297441       0.65022010       0.00000000
Si       1.76606406      -0.29338290       2.88181751       0.00000000
Si      -3.29595570      -0.95198760       0.92445178       0.00000000
Si      -1.79398512      -2.05998453       2.38253890       0.00000000
Si       2.27879181       2.86286717       0.02319252       0.00000000
Si       2.38314555      -1.66285062      -2.24531937       0.00000000
Si      -2.89391850       1.85033290      -1.56005126       0.00000000
