10
Lattice="16.28999089631971 0.0 0.0 0.0 16.28999089631971 0.0 0.0 0.0 34.56409401068381" Properties=species:S:1:pos:R:3:initial_magmoms:R:1 pbc="T T T"
Si      -1.35596331       1.35900954       1.36096196       0.00000000
Si       1.35863487      -1.35700587       1.36106565       0.00000000
Si      -1.35314514      -1.35876519      -1.36885295       0.00000000
Si       1.35809730       1.36640520      -1.38191818       0.00000000
Si      -2.71467963      -2.70976982      -0.00114062       0.00000000
Si      -2.71018359       2.71564074       0.00217754       0.00000000
Si      -2.71332756       0.00114030       2.71715408       0.00000000
Si       0.00203625      -2.71404758       2.71756885       0.00000000
Si       2.71868697      -2.71412414       0.00145169       0.00000000
Si       2.71365336       2.71981098      -0.00010369       0.00000000
