10
Lattice="16.28999089631971 0.0 0.0 0.0 16.28999089631971 0.0 0.0 0.0 34.56409401068381" Properties=species:S:1:pos:R:3:initial_magmoms:R:1 pbc="T T T"
Si      -1.35659862      -1.35843124       1.35660688       0.00000000
Si      -1.35705474       1.35754344      -1.35743642       0.00000000
Si       1.35830907      -1.35764444      -1.35702165       0.00000000
Si       1.35777150       1.35772263       1.35809314       0.00000000
Si      -0.00197109      -2.70976430       2.71608259       0.00000000
Si      -2.71088406      -0.00465894       2.71749972       0.00000000
Si       2.71490769      -0.00060273      -2.71352484       0.00000000
Si       0.00030951       2.71541268      -2.71362854       0.00000000
Si      -0.00312768       2.71671588       2.71255705       0.00000000
Si      -2.71430496       2.71515204       0.00031108       0.00000000
