10
Lattice="16.28999089631971 0.0 0.0 0.0 16.28999089631971 0.0 0.0 0.0 34.56409401068381" Properties=species:S:1:pos:R:3:initial_magmoms:R:1 pbc="T T T"
Si       1.35428544      -1.35377230      -1.36089283       0.00000000
Si       1.36383138       1.36950030       1.33745837       0.00000000
Si      -1.36104579       1.36334268      -1.35930288       0.00000000
Si      -1.36531377      -1.37431725       1.38263366       0.00000000
Si       0.03538188       2.66620059       2.72603705       0.00000000
Si       2.70891297      -2.70510536      -0.00141713       0.00000000
Si      -2.71951776      -2.70734015      -0.00089867       0.00000000
Si      -0.00415395      -2.71027299      -2.71736146       0.00000000
Si       2.71088406       0.00465894      -2.71749972       0.00000000
Si       2.70775638       2.72137482      -0.00494267       0.00000000
