10
Lattice="16.28999089631971 0.0 0.0 0.0 16.28999089631971 0.0 0.0 0.0 34.56409401068381" Properties=species:S:1:pos:R:3:initial_magmoms:R:1 pbc="T T T"
Si      -0.00169416       1.64030526      -1.67165878       0.00000000
Si       2.15229996      -0.90828479       0.25169587       0.00000000
Si      -1.76003676      -1.21635964      -0.99696728       0.00000000
Si      -1.44787149       0.47789973       1.82266939       0.00000000
Si      -3.31063299      -0.07177374       0.30921056       0.00000000
Si      -1.21041216      -3.39425675      -0.20624406       0.00000000
Si      -1.33874478      -1.50383253       3.08598773       0.00000000
Si       3.41751168       0.97542891       1.06581900       0.00000000
Si      -1.60482564       3.22519194      -0.93319650       0.00000000
Si       2.63226852      -2.18815262      -1.70007048       0.00000000
