10
Lattice="16.28999089631971 0.0 0.0 0.0 16.28999089631971 0.0 0.0 0.0 34.56409401068381" Properties=species:S:1:pos:R:3:initial_magmoms:R:1 pbc="T T T"
Si      -2.03778126       0.23474379      -1.06315756       0.00000000
Si       0.79519635       2.16285751       0.30613435       0.00000000
Si       1.72193445      -0.98405414      -1.27873394       0.00000000
Si      -0.46025766      -0.96646615       2.11221297       0.00000000
Si       2.82077640       1.30615012       1.32522267       0.00000000
Si      -2.70661608       2.30656789      -0.06104022       0.00000000
Si      -3.34153512      -1.42485928       0.01040380       0.00000000
Si       0.98647353       2.99141578      -1.92788255       0.00000000
Si       3.66801930       0.17512890      -0.57445556       0.00000000
Si       1.46880414      -2.13005338       2.83239083       0.00000000
