10
Lattice="16.28999089631971 0.0 0.0 0.0 16.28999089631971 0.0 0.0 0.0 34.56409401068381" Properties=species:S:1:pos:R:3:initial_magmoms:R:1 pbc="T T T"
Si       0.38760426      -0.55542384      -2.20166489       0.00000000
Si       0.00169416      -1.64030526       1.67165878       0.00000000
Si      -1.60313148       1.58488668       0.73846228       0.00000000
Si       2.24935578       0.75961899      -0.79494004       0.00000000
Si      -1.75834260      -2.85666490       0.67469149       0.00000000
Si      -0.33958134       2.42035191       2.61214830       0.00000000
Si       3.32513109       1.25312454       1.26964357       0.00000000
Si       2.15399412      -2.54859005       1.92335465       0.00000000
Si      -3.73829436       0.42311646       1.02047088       0.00000000
Si      -2.31544431       3.00418551      -1.04335232       0.00000000
