10
Lattice="16.28999089631971 0.0 0.0 0.0 16.28999089631971 0.0 0.0 0.0 34.56409401068381" Properties=species:S:1:pos:R:3:initial_magmoms:R:1 pbc="T T T"
Si      -1.33837011       1.19808063      -1.46672124       0.00000000
Si      -1.35562122      -1.34429967       1.34892328       0.00000000
Si       1.21733541      -1.39325112      -1.45180682       0.00000000
Si       1.35627282       1.37176461       1.34937262       0.00000000
Si       0.47661282       2.09259711      -2.70040355       0.00000000
Si       2.13412032       0.34440318      -2.86573625       0.00000000
Si      -2.00837781      -0.56207016      -3.00254101       0.00000000
Si       2.71265967      -2.69353521      -0.03517244       0.00000000
Si      -0.00140094      -2.70093087       2.70770770       0.00000000
Si      -0.35160336      -2.58238854      -2.80269131       0.00000000
