10
Lattice="16.28999089631971 0.0 0.0 0.0 16.28999089631971 0.0 0.0 0.0 34.56409401068381" Properties=species:S:1:pos:R:3:initial_magmoms:R:1 pbc="T T T"
Si       1.35562122       1.34429967      -1.34892328       0.00000000
Si       1.35422028      -1.35663120       1.35878442       0.00000000
Si      -1.36311462       1.35562122       1.35805858       0.00000000
Si      -1.36783872      -1.36889757      -1.38644954       0.00000000
Si       0.01725111       2.54238030      -2.81564452       0.00000000
Si       2.57295663      -0.04895145      -2.80073010       0.00000000
Si       2.71018359      -2.71564074      -0.00217754       0.00000000
Si       2.71120986       0.00052128       2.71539131       0.00000000
Si       2.71189404       2.71606428       0.00044933       0.00000000
Si      -2.71448415       2.71375110      -0.00006913       0.00000000
