10
Lattice="16.28999089631971 0.0 0.0 0.0 16.28999089631971 0.0 0.0 0.0 34.56409401068381" Properties=species:S:1:pos:R:3:initial_magmoms:R:1 pbc="T T T"
Si       1.07577531       0.49350555       2.06458362       0.00000000
Si       0.10142154       2.21915412      -0.91111003       0.00000000
Si       1.64006091      -1.45875321      -1.03955027       0.00000000
Si      -2.24935578      -0.75961899       0.79494004       0.00000000
Si      -1.86175152      -1.31504283      -1.40672485       0.00000000
Si       2.43191781       2.40261210      -1.01939939       0.00000000
Si      -0.31423410       2.23673103       2.86965094       0.00000000
Si       2.91993363       1.91878281       1.37928094       0.00000000
Si      -2.09798910       0.26754696      -3.11992969       0.00000000
Si      -0.23118768       3.67303662       0.95949979       0.00000000
