10
Lattice="16.28999089631971 0.0 0.0 0.0 16.28999089631971 0.0 0.0 0.0 34.56409401068381" Properties=species:S:1:pos:R:3:initial_magmoms:R:1 pbc="T T T"
Si       1.33837011      -1.19808063       1.46672124       0.00000000
Si       1.81498293       0.89451648      -1.23368231       0.00000000
Si      -0.67000770      -1.76015079      -1.53581978       0.00000000
Si      -1.37684709       1.50988752       1.42954753       0.00000000
Si       0.69946002       0.41443389      -3.30204597       0.00000000
Si      -2.57597028      -2.47318038      -0.12219105       0.00000000
Si       2.55570552      -2.59133175       0.01491441       0.00000000
Si      -0.01725111      -2.54238030       2.81564452       0.00000000
Si       3.47249043      -0.85367745      -1.39901502       0.00000000
Si       2.69415423       2.79950166      -0.03424267       0.00000000
