10
Lattice="16.28999089631971 0.0 0.0 0.0 16.28999089631971 0.0 0.0 0.0 34.56409401068381" Properties=species:S:1:pos:R:3:initial_magmoms:R:1 pbc="T T T"
Si       1.37958381      -1.32001128       1.37482217       0.00000000
Si       1.36565586       1.34167698      -1.37848597       0.00000000
Si      -1.34785089      -1.37634210      -1.37617017       0.00000000
Si      -1.21481046       1.45145529       1.54442828       0.00000000
Si      -2.69283474       2.71202436       0.01997806       0.00000000
Si       2.71909422       2.70648576      -0.02353816       0.00000000
Si      -2.70343953      -2.73096963      -0.00518462       0.00000000
Si       0.00975771       2.69957880      -2.73789254       0.00000000
Si      -2.70495450      -0.01448181      -2.73682106       0.00000000
Si       2.71513575      -2.72976417      -0.00985077       0.00000000
