10
Lattice="16.28999089631971 0.0 0.0 0.0 16.28999089631971 0.0 0.0 0.0 34.56409401068381" Properties=species:S:1:pos:R:3:initial_magmoms:R:1 pbc="T T T"
Si       1.37116188       1.88283078       0.40892802       0.00000000
Si      -2.04369453       0.93763611      -0.83043739       0.00000000
Si       1.36190916      -1.04972760      -1.68033437       0.00000000
Si      -0.46490031      -1.19192301       2.05093079       0.00000000
Si       1.27242819       2.94598134      -1.72817110       0.00000000
Si       3.55148064      -0.41252796      -1.07293921       0.00000000
Si      -2.58427818       2.83830444       0.42147480       0.00000000
Si       3.65143608       1.22605056       0.63774245       0.00000000
Si       0.86268582      -3.30204816      -1.92048583       0.00000000
Si      -2.09152197      -0.00959481       3.32192237       0.00000000
