10
Lattice="16.28999089631971 0.0 0.0 0.0 16.28999089631971 0.0 0.0 0.0 34.56409401068381" Properties=species:S:1:pos:R:3:initial_magmoms:R:1 pbc="T T T"
Si       1.35654975       1.35654975      -1.35695253       0.00000000
Si      -1.35845568       1.35399222       1.35947571       0.00000000
Si      -1.35827649      -1.35765747      -1.35702165       0.00000000
Si       1.35589815      -1.35790182       1.35940658       0.00000000
Si       2.70933651       0.00690696       2.71435438       0.00000000
Si       2.71300176       2.71344159       0.00072585       0.00000000
Si      -0.00084708       2.71412577      -2.71407787       0.00000000
Si       2.71417464      -0.00055386      -2.71431982       0.00000000
Si      -2.71471221      -2.71406061       0.00107149       0.00000000
Si       2.71350675      -2.71581993       0.00072585       0.00000000
