10
Lattice="16.28999089631971 0.0 0.0 0.0 16.28999089631971 0.0 0.0 0.0 34.56409401068381" Properties=species:S:1:pos:R:3:initial_magmoms:R:1 pbc="T T T"
Si       1.36166481       1.35503771      -1.37748361       0.00000000
Si      -1.35115776      -1.36850661      -1.37717253       0.00000000
Si       1.41380910      -1.31289255       1.37074361       0.00000000
Si      -1.40338350       1.24594065       1.54515412       0.00000000
Si      -2.71256193       2.68582582       0.00656718       0.00000000
Si      -2.69529453      -2.71005327       0.02122237       0.00000000
Si       2.70894555       2.70581854      -0.00708564       0.00000000
Si       2.71663443      -2.71559187      -0.02229385       0.00000000
Si       0.00703728       2.70637077      -2.73695931       0.00000000
Si      -2.70933651      -0.00796581      -2.73543849       0.00000000
