10
Lattice="16.28999089631971 0.0 0.0 0.0 16.28999089631971 0.0 0.0 0.0 34.56409401068381" Properties=species:S:1:pos:R:3:initial_magmoms:R:1 pbc="T T T"
Si       0.42624414      -0.56752731      -2.22727690       0.00000000
Si       1.05300189       1.89757064       0.89569443       0.00000000
Si      -1.93867290       1.20348958      -0.57487033       0.00000000
Si      -0.96474267      -2.02212657       0.81187646       0.00000000
Si       2.56787415      -1.13106357       1.84019339       0.00000000
Si      -2.50818759      -2.06171127      -1.03319048       0.00000000
Si       2.74691754      -1.57040487      -1.66381272       0.00000000
Si       1.76326218       3.12571610      -1.06982844       0.00000000
Si      -2.61254133       2.46400652       1.23532141       0.00000000
Si      -0.58754772       2.93033384       2.35440371       0.00000000
