10
Lattice="16.28999089631971 0.0 0.0 0.0 16.28999089631971 0.0 0.0 0.0 34.56409401068381" Properties=species:S:1:pos:R:3:initial_magmoms:R:1 pbc="T T T"
Si       1.74682557       1.38753333      -0.67144247       0.00000000
Si      -1.68554259      -0.89305038      -1.33797683       0.00000000
Si      -1.58203593       0.35303688       1.74216957       0.00000000
Si       1.23647616      -1.83058875       0.90872510       0.00000000
Si      -3.02673087      -1.10785032       0.63473538       0.00000000
Si       2.73789288       1.29977910       1.45839820       0.00000000
Si       3.11217192      -0.95876424       1.99811683       0.00000000
Si      -0.80425359      -0.62696952       3.71633346       0.00000000
Si      -0.80290152      -2.39137200      -2.91347824       0.00000000
Si       2.90761839       0.57274011      -2.51377883       0.00000000
