10
Lattice="16.28999089631971 0.0 0.0 0.0 16.28999089631971 0.0 0.0 0.0 34.56409401068381" Properties=species:S:1:pos:R:3:initial_magmoms:R:1 pbc="T T T"
Si       0.05698242       0.10396278       2.30096728       0.00000000
Si       0.12603573       2.25965106      -0.67766401       0.00000000
Si       1.08383886      -1.63188333      -1.45203840       0.00000000
Si      -0.81523305       2.15430363      -2.83774827       0.00000000
Si      -2.67419898       0.57436911      -2.42702291       0.00000000
Si       2.55507021       2.80575702      -0.64178646       0.00000000
Si       1.99741464      -3.30577857       0.12252978       0.00000000
Si      -1.60262649      -1.05629247       3.44326802       0.00000000
Si      -0.54949428      -2.83999860      -2.72783439       0.00000000
Si       1.29894831       1.81482003       3.44486143       0.00000000
