10
Lattice="16.28999089631971 0.0 0.0 0.0 16.28999089631971 0.0 0.0 0.0 34.56409401068381" Properties=species:S:1:pos:R:3:initial_magmoms:R:1 pbc="T T T"
Si       1.35653346       1.35648648       1.35798945       0.00000000
Si      -1.35713619       1.35724885      -1.35688340       0.00000000
Si       1.35762489      -1.35792341      -1.35715991       0.00000000
Si      -1.35878148      -1.35896597       1.35778206       0.00000000
Si      -0.00053757       2.71429056      -2.71338659       0.00000000
Si       2.71486054       2.71433943       0.00024195       0.00000000
Si       0.00074934      -2.71545056      -2.71397418       0.00000000
Si       0.00133578       2.71420911       2.71525305       0.00000000
Si       2.71518462      -0.00029028      -2.71459633       0.00000000
Si      -2.71544526       2.71489329       0.00013826       0.00000000
