10
Lattice="16.28999089631971 0.0 0.0 0.0 16.28999089631971 0.0 0.0 0.0 34.56409401068381" Properties=species:S:1:pos:R:3:initial_magmoms:R:1 pbc="T T T"
Si       1.36769211       1.35420399       1.34627221       0.00000000
Si       1.35519768      -1.35772263      -1.35726360       0.00000000
Si      -1.35900954       1.35840681      -1.35702165       0.00000000
Si      -1.37147139      -1.35829930       1.37136576       0.00000000
Si      -0.05535342       2.61389340       2.68545878       0.00000000
Si       2.70557352      -0.01974348       2.69634648       0.00000000
Si       2.71279101       2.71500543      -0.00217754       0.00000000
Si      -2.71875213      -2.70908012       0.00096780       0.00000000
Si       2.71352476       0.00013032      -2.71501110       0.00000000
Si      -0.00133578      -2.71420911      -2.71525305       0.00000000
