10
Lattice="16.28999089631971 0.0 0.0 0.0 16.28999089631971 0.0 0.0 0.0 34.56409401068381" Properties=species:S:1:pos:R:3:initial_magmoms:R:1 pbc="T T T"
Si       0.92499507       1.76585670       1.22730254       0.00000000
Si       1.32952464      -1.37849515      -1.37029427       0.00000000
Si      -1.19185785      -1.46375701       1.43914599       0.00000000
Si      -1.40644602       1.34073006      -1.37648125       0.00000000
Si      -1.55312118       0.20238486       3.17689135       0.00000000
Si       2.67059889       2.67928587      -0.05150053       0.00000000
Si       2.58660765      -2.78350765       0.16431779       0.00000000
Si      -2.70158247      -2.67798103       0.00134800       0.00000000
Si       2.68090670      -0.01550938      -2.74857286       0.00000000
Si      -0.03497463       2.69902935      -2.74784701       0.00000000
