10
Lattice="16.28999089631971 0.0 0.0 0.0 16.28999089631971 0.0 0.0 0.0 34.56409401068381" Properties=species:S:1:pos:R:3:initial_magmoms:R:1 pbc="T T T"
Si       0.66559311       1.76239881      -1.47619872       0.00000000
Si       1.68091623      -1.78466724      -0.18650796       0.00000000
Si      -1.95251940      -0.69076116      -1.37534063       0.00000000
Si      -2.54226627       0.87547347       0.74122741       0.00000000
Si      -2.18818683      -1.41094206       2.06378864       0.00000000
Si      -1.31872437       2.12247297       2.38284997       0.00000000
Si       2.08863864       0.50270940      -2.81538529       0.00000000
Si      -0.65052486      -2.20979389      -2.79029174       0.00000000
Si       3.16487007       1.41810966       1.30061302       0.00000000
Si       2.14035939       3.02148549      -0.11900424       0.00000000
