10
Lattice="16.28999089631971 0.0 0.0 0.0 16.28999089631971 0.0 0.0 0.0 34.56409401068381" Properties=species:S:1:pos:R:3:initial_magmoms:R:1 pbc="T T T"
Si      -1.35552348       1.34819298       1.34914104       0.00000000
Si       1.35127179       1.36068741      -1.36103109       0.00000000
Si      -1.36081773      -1.35707103      -1.36068545       0.00000000
Si       1.33141428      -1.37847609       1.41228967       0.00000000
Si      -2.65234757      -0.03375288       2.74874568       0.00000000
Si       2.71274112       2.71686249       0.01047293       0.00000000
Si      -2.71951939       2.71107954      -0.01202831       0.00000000
Si       2.71034649       0.00340461      -2.72095613       0.00000000
Si      -0.00474039      -2.71412903      -2.72278803       0.00000000
Si      -0.00428427       2.71753038      -2.72175110       0.00000000
