10
Lattice="16.28999089631971 0.0 0.0 0.0 16.28999089631971 0.0 0.0 0.0 34.56409401068381" Properties=species:S:1:pos:R:3:initial_magmoms:R:1 pbc="T T T"
Si       0.28069299      -2.26846169       0.57988213       0.00000000
Si       0.16640235       0.51489399      -2.29678533       0.00000000
Si      -1.72193445       0.98405414       1.27873394       0.00000000
Si       1.94608485       1.15918304       0.70427837       0.00000000
Si      -0.27464940      -2.20284557      -2.60419855       0.00000000
Si       0.79535925       2.83171644      -2.03786556       0.00000000
Si       1.44148581      -3.08325491      -1.26245424       0.00000000
Si       1.09884195       2.29020426       2.60395661       0.00000000
Si      -0.92673810       3.14691165       1.58486829       0.00000000
Si       3.63829398      -0.45574307       0.68578657       0.00000000
