10
Lattice="16.28999089631971 0.0 0.0 0.0 16.28999089631971 0.0 0.0 0.0 34.56409401068381" Properties=species:S:1:pos:R:3:initial_magmoms:R:1 pbc="T T T"
Si       1.35762489       1.35710361      -1.35816227       0.00000000
Si      -1.35777150      -1.35772263      -1.35809314       0.00000000
Si      -1.36089918       1.35899325       1.35446391       0.00000000
Si       1.35900954      -1.35840681       1.35702165       0.00000000
Si      -2.70482418       0.00711873       2.69686494       0.00000000
Si      -2.71275741       2.71490769      -0.00093323       0.00000000
Si       2.71546155       2.71419093      -0.00114062       0.00000000
Si      -0.00047241       2.71484253      -2.71511479       0.00000000
Si       2.72670165      -0.00420282       2.70329387       0.00000000
Si       2.71508688      -0.00073305      -2.71514936       0.00000000
