10
Lattice="16.28999089631971 0.0 0.0 0.0 16.28999089631971 0.0 0.0 0.0 34.56409401068381" Properties=species:S:1:pos:R:3:initial_magmoms:R:1 pbc="T T T"
Si      -1.35558864       1.35752715       1.35657232       0.00000000
Si       1.35633900      -1.35759231       1.35598473       0.00000000
Si       1.35724048       1.35739683      -1.35657232       0.00000000
Si      -1.35783666      -1.35708732      -1.35702165       0.00000000
Si      -0.01119123       2.71484253       2.70363951       0.00000000
Si       0.01124010      -2.71839375       2.70443448       0.00000000
Si       2.71496212      -0.00555489       2.71017213       0.00000000
Si       2.71275319      -2.71432125       0.00051846       0.00000000
Si       2.71479596       0.00003258      -2.71407787       0.00000000
Si      -0.00037467      -2.71492398      -2.71400874       0.00000000
