10
Lattice="16.28999089631971 0.0 0.0 0.0 16.28999089631971 0.0 0.0 0.0 34.56409401068381" Properties=species:S:1:pos:R:3:initial_magmoms:R:1 pbc="T T T"
Si       0.90448011       1.95121620       0.84156703       0.00000000
Si       1.69466240      -0.94739382      -1.34948668       0.00000000
Si      -1.02451068       1.60337583      -1.41961726       0.00000000
Si      -0.16236243      -2.12832108       1.22647300       0.00000000
Si       2.39509331      -2.59880886       0.16780877       0.00000000
Si       0.26164998      -2.28934773      -2.76592404       0.00000000
Si      -3.16487007      -1.41810966      -1.30061302       0.00000000
Si      -2.49927696       0.34428915      -2.77681174       0.00000000
Si      -0.88769097       3.42241497       1.29667271       0.00000000
Si       1.72851465       1.67014854       2.93705097       0.00000000
