10
Lattice="16.28999089631971 0.0 0.0 0.0 16.28999089631971 0.0 0.0 0.0 34.56409401068381" Properties=species:S:1:pos:R:3:initial_magmoms:R:1 pbc="T T T"
Si      -0.32387778      -1.54157157       1.76166373       0.00000000
Si       0.33080103       1.95201441       1.34022349       0.00000000
Si       1.91248414      -1.00258434      -1.08524403       0.00000000
Si      -1.96077843      -0.00257382      -1.43548219       0.00000000
Si      -2.19849840      -2.31935391      -1.71469110       0.00000000
Si      -1.85469795      -0.39781809       3.15038067       0.00000000
Si       1.99435931       3.21576003       0.10870414       0.00000000
Si       1.65936456      -1.46878785       3.08533101       0.00000000
Si      -1.20795237       3.57397713       0.65550841       0.00000000
Si      -0.38941245       1.37010303       3.59788225       0.00000000
