10
Lattice="16.28999089631971 0.0 0.0 0.0 16.28999089631971 0.0 0.0 0.0 34.56409401068381" Properties=species:S:1:pos:R:3:initial_magmoms:R:1 pbc="T T T"
Si       1.46528550       1.76792112       0.44750158       0.00000000
Si       1.53082017      -1.14375348      -1.38871695       0.00000000
Si      -0.19127718      -0.82855827       2.23401690       0.00000000
Si      -2.10875679       0.12976614      -1.17265667       0.00000000
Si       3.51406251      -1.07096976      -0.06504966       0.00000000
Si       1.85469795       0.39781809      -3.15038067       0.00000000
Si       2.18549898       2.34983250      -1.81015718       0.00000000
Si      -0.98647353      -2.99141578       1.92788255       0.00000000
Si      -2.69461035      -2.11691808      -1.44083963       0.00000000
Si       3.42132354       0.84999591       1.29819353       0.00000000
