10
Lattice="16.28999089631971 0.0 0.0 0.0 16.28999089631971 0.0 0.0 0.0 34.56409401068381" Properties=species:S:1:pos:R:3:initial_magmoms:R:1 pbc="T T T"
Si      -1.35702216      -1.35708732      -1.35795488       0.00000000
Si       1.35799956       1.35799956      -1.35747099       0.00000000
Si       1.36047564      -1.35742941       1.35588104       0.00000000
Si      -1.35760860       1.35791811       1.35868073       0.00000000
Si       2.70487305      -0.00011403       2.70294823       0.00000000
Si      -2.71215468      -2.71423980      -0.00048390       0.00000000
Si       0.00013032      -2.71430496      -2.71466546       0.00000000
Si      -2.71350675       2.71581993      -0.00072585       0.00000000
Si      -2.71433754      -0.00006516      -2.71556413       0.00000000
Si       2.71490769       0.00120546      -2.71504567       0.00000000
