10
Lattice="16.28999089631971 0.0 0.0 0.0 16.28999089631971 0.0 0.0 0.0 34.56409401068381" Properties=species:S:1:pos:R:3:initial_magmoms:R:1 pbc="T T T"
Si      -1.35404109       1.35488817       1.35550083       0.00000000
Si       1.35858619      -1.35959598       1.35512063       0.00000000
Si       1.35996805       1.36089918      -1.36007712       0.00000000
Si      -1.35000117      -1.36205577      -1.37548235       0.00000000
Si      -2.71093293       2.70990666      -0.00508092       0.00000000
Si       2.66648471      -0.00972513      -2.75433124       0.00000000
Si      -2.71239903      -0.00262269       2.71221141       0.00000000
Si       0.00283446       2.71241532       2.71231510       0.00000000
Si       2.71629301       2.71112841      -0.00349098       0.00000000
Si       0.00184077      -2.71668330       2.71221141       0.00000000
