10
Lattice="16.28999089631971 0.0 0.0 0.0 16.28999089631971 0.0 0.0 0.0 34.56409401068381" Properties=species:S:1:pos:R:3:initial_magmoms:R:1 pbc="T T T"
Si      -1.36262592      -1.35003375       1.35494781       0.00000000
Si       1.35759231      -1.35635427      -1.35830053       0.00000000
Si      -1.35896067       1.35650088      -1.35868073       0.00000000
Si       1.36565586       1.35215145       1.37634299       0.00000000
Si      -2.66545125       0.05266557       2.74798527       0.00000000
Si      -2.71606428      -2.71484253       0.00000000       0.00000000
Si      -0.00045612      -2.71476108      -2.71615172       0.00000000
Si       2.71495917       0.00000000      -2.71604803       0.00000000
Si      -2.71541268      -0.00039096      -2.71635910       0.00000000
Si      -0.00017919       2.71546685      -2.71646279       0.00000000
