10
Lattice="16.28999089631971 0.0 0.0 0.0 16.28999089631971 0.0 0.0 0.0 34.56409401068381" Properties=species:S:1:pos:R:3:initial_magmoms:R:1 pbc="T T T"
Si       0.35789130       0.88523118       2.16402457       0.00000000
Si       1.79569557      -0.89827947      -1.25820285       0.00000000
Si      -0.56163033       1.97648199      -1.35460217       0.00000000
Si      -1.72517616      -1.75334157       0.18543647       0.00000000
Si      -1.96278210       1.88810874       1.60056040       0.00000000
Si      -3.22737480      -0.65422269      -1.24009126       0.00000000
Si       0.53804241      -2.06527878      -2.84822119       0.00000000
Si      -2.07135495       0.76225797      -2.79240015       0.00000000
Si      -0.75339621      -3.38004468      -1.35840422       0.00000000
Si      -0.92289366       3.64262386       0.38314320       0.00000000
