10
Lattice="16.28999089631971 0.0 0.0 0.0 16.28999089631971 0.0 0.0 0.0 34.56409401068381" Properties=species:S:1:pos:R:3:initial_magmoms:R:1 pbc="T T T"
Si       1.71240480       1.05679746       1.18776119       0.00000000
Si       1.20059743      -1.03744494      -1.72367777       0.00000000
Si      -1.70952866       1.22844519      -1.07660300       0.00000000
Si      -1.66355828      -1.26374562       1.23151936       0.00000000
Si      -3.20231168       0.35821710       0.54680427       0.00000000
Si       2.29397409      -0.98253135       2.24832644       0.00000000
Si       3.12865740       0.31925142      -1.94589045       0.00000000
Si      -1.41560819       0.71482149      -3.36405602       0.00000000
Si      -1.99435931      -3.21576003      -0.10870414       0.00000000
Si       0.71745884       2.46954771       2.78507256       0.00000000
