10
Lattice="16.28999089631971 0.0 0.0 0.0 16.28999089631971 0.0 0.0 0.0 34.56409401068381" Properties=species:S:1:pos:R:3:initial_magmoms:R:1 pbc="T T T"
Si      -1.34890974      -1.34408790       1.37709303       0.00000000
Si       1.36427121       1.37143881       1.37315273       0.00000000
Si      -1.40069565       1.36036161      -1.37447307       0.00000000
Si       1.25221230      -1.51003413      -1.36146660       0.00000000
Si      -2.71315966      -2.71034649      -0.01013074       0.00000000
Si      -2.70721231       2.73098592       0.01978104       0.00000000
Si       0.00899208      -2.70462870       2.73435664       0.00000000
Si      -2.70859416       0.01049076       2.73497879       0.00000000
Si       2.72710890       2.71922454      -0.00369836       0.00000000
Si       2.72403009       0.00979029       2.73463315       0.00000000
