10
Lattice="16.28999089631971 0.0 0.0 0.0 16.28999089631971 0.0 0.0 0.0 34.56409401068381" Properties=species:S:1:pos:R:3:initial_magmoms:R:1 pbc="T T T"
Si      -1.36939939      -1.35669636       1.34243560       0.00000000
Si       1.35645585      -1.35588186      -1.36065089       0.00000000
Si      -1.35822445       1.35982404      -1.36013242       0.00000000
Si       1.36025305       1.36682874       1.38256453       0.00000000
Si      -0.02949802      -2.74501161       2.65746185       0.00000000
Si      -2.71379680      -2.71401174      -0.00463159       0.00000000
Si       2.71449451       2.71438641      -0.00224667       0.00000000
Si       2.71475515      -2.71583622      -0.00252318       0.00000000
Si      -0.00096767      -2.71414206      -2.71777623       0.00000000
Si      -2.71581676       2.71617831      -0.00183190       0.00000000
