10
Lattice="16.28999089631971 0.0 0.0 0.0 16.28999089631971 0.0 0.0 0.0 34.56409401068381" Properties=species:S:1:pos:R:3:initial_magmoms:R:1 pbc="T T T"
Si       1.38031686       1.38655497       1.38280648       0.00000000
Si       1.45580472      -1.22904792      -1.45656630       0.00000000
Si      -1.26007060       1.46988972      -1.47657892       0.00000000
Si      -1.50020800      -1.21531545       1.49614221       0.00000000
Si       0.01889640      -2.64810240       2.67142575       0.00000000
Si      -2.71783079      -2.63173095       0.06287212       0.00000000
Si      -0.50039622       2.52160145       2.78078661       0.00000000
Si       0.08974161      -2.58066180      -2.84849771       0.00000000
Si      -2.63383955       2.83106258      -0.15294620       0.00000000
Si      -2.62353174       0.13626732      -2.85001853       0.00000000
