10
Lattice="16.28999089631971 0.0 0.0 0.0 16.28999089631971 0.0 0.0 0.0 34.56409401068381" Properties=species:S:1:pos:R:3:initial_magmoms:R:1 pbc="T T T"
Si      -2.20158047      -0.37313874      -0.61524122       0.00000000
Si       0.00835677      -1.78927731       1.57470644       0.00000000
Si       0.25120809       1.99383151       1.31291784       0.00000000
Si       0.08905743      -1.27291689      -2.18787381       0.00000000
Si      -1.97484484      -2.50593957       0.46322825       0.00000000
Si      -1.43004697       0.15987006      -3.36315735       0.00000000
Si      -0.78542235      -3.37238838      -1.31343631       0.00000000
Si       1.06767918       1.14236883       3.35963182       0.00000000
Si       2.06467605       3.16098395       0.35645970       0.00000000
Si      -0.15082911      -0.80848899       3.79742087       0.00000000
