10
Lattice="10.86 0.0 0.0 0.0 10.86 0.0 0.0 0.0 10.86" Properties=species:S:1:pos:R:3:initial_magmoms:R:1 pbc="T T T"
Si       1.47951210      -1.03405662       1.38365088       0.00000000
Si      -1.03968210       1.59564894       1.35574068       0.00000000
Si       1.20853338       0.45866124      -2.18890902       0.00000000
Si      -2.46798930      -2.50293678       0.12365196       0.00000000
Si      -2.46798930       0.21206322      -2.59134804       0.00000000
Si       0.24701070      -2.50293678      -2.59134804       0.00000000
Si      -2.46798930       0.21206322       2.83865196       0.00000000
Si       0.24701070      -2.50293678       2.83865196       0.00000000
Si      -2.46798930       2.92706322       0.12365196       0.00000000
Si       2.96201070      -2.50293678       0.12365196       0.00000000
