10
Lattice="10.86 0.0 0.0 0.0 10.86 0.0 0.0 0.0 10.86" Properties=species:S:1:pos:R:3:initial_magmoms:R:1 pbc="T T T"
Si       1.22811396      -1.58695008      -1.09221192       0.00000000
Si       1.22811396       1.12804992       1.62278808       0.00000000
Si      -1.48688604      -1.58695008       1.62278808       0.00000000
Si       2.58561396      -0.22945008      -2.44971192       0.00000000
Si      -3.24036336       1.37464794      -0.68977290       0.00000000
Si       2.58561396       2.48554992       0.26528808       0.00000000
Si      -2.85252018      -0.27619152      -2.35629420       0.00000000
Si      -0.12938604      -2.94445008      -2.44971192       0.00000000
Si       2.58561396      -2.94445008       0.26528808       0.00000000
Si       2.58561396      -0.22945008       2.98028808       0.00000000
