10
Lattice="10.86 0.0 0.0 0.0 10.86 0.0 0.0 0.0 10.86" Properties=species:S:1:pos:R:3:initial_magmoms:R:1 pbc="T T T"
Si      -1.42830720       1.33141428      -1.23208872       0.00000000
Si       1.03968210      -1.59564894      -1.35574068       0.00000000
Si       1.28669280       1.33141428       1.48291128       0.00000000
Si      -1.42830720      -1.38358572       1.48291128       0.00000000
Si       2.51919420      -2.62970556       0.02791020       0.00000000
Si       2.52879444       2.80633260       0.25534032       0.00000000
Si      -2.78580720      -0.02608572      -2.58958872       0.00000000
Si      -0.21865524       2.77947582      -2.60674752       0.00000000
Si      -2.78580720       2.68891428       0.12541128       0.00000000
Si       2.64419280      -0.02608572       2.84041128       0.00000000
