10
Lattice="10.86 0.0 0.0 0.0 10.86 0.0 0.0 0.0 10.86" Properties=species:S:1:pos:R:3:initial_magmoms:R:1 pbc="T T T"
Si      -1.34936586      -1.31075856       1.26408228       0.00000000
Si      -0.38784318       1.65083946       1.66652130       0.00000000
Si       1.36563414      -1.31075856      -1.45091772       0.00000000
Si      -1.34936586       1.40424144      -1.45091772       0.00000000
Si       2.85252018       0.27619152       2.35629420       0.00000000
Si       0.00813414      -2.66825856       2.62158228       0.00000000
Si      -2.70686586      -2.66825856      -0.09341772       0.00000000
Si       2.72313414      -2.66825856      -0.09341772       0.00000000
Si       0.00813414      -2.66825856      -2.80841772       0.00000000
Si      -2.70686586       0.04674144      -2.80841772       0.00000000
