10
Lattice="10.86 0.0 0.0 0.0 10.86 0.0 0.0 0.0 10.86" Properties=species:S:1:pos:R:3:initial_magmoms:R:1 pbc="T T T"
Si       1.22436726      -1.18332732      -1.46011614       0.00000000
Si      -1.49063274      -1.18332732       1.25488386       0.00000000
Si       1.22436726       1.53167268       1.25488386       0.00000000
Si       2.58186726      -2.54082732      -0.10261614       0.00000000
Si      -0.13313274      -2.54082732       2.61238386       0.00000000
Si       2.58186726       0.17417268       2.61238386       0.00000000
Si      -0.13313274      -2.54082732      -2.81761614       0.00000000
Si      -2.84813274      -2.54082732      -0.10261614       0.00000000
Si       2.58186726       0.17417268      -2.81761614       0.00000000
Si       2.58186726       2.88917268      -0.10261614       0.00000000
