10
Lattice="10.86 0.0 0.0 0.0 10.86 0.0 0.0 0.0 10.86" Properties=species:S:1:pos:R:3:initial_magmoms:R:1 pbc="T T T"
Si       1.17176142       1.15190934       1.54270644       0.00000000
Si      -1.54323858       1.15190934      -1.17229356       0.00000000
Si       1.17176142      -1.56309066      -1.17229356       0.00000000
Si       2.52926142       2.50940934       0.18520644       0.00000000
Si      -0.18573858       2.50940934      -2.52979356       0.00000000
Si       2.52926142      -0.20559066      -2.52979356       0.00000000
Si      -2.84333262       2.45523966       0.13408842       0.00000000
Si      -0.07494486       2.46611052       2.94726282       0.00000000
Si       2.52926142      -0.20559066       2.90020644       0.00000000
Si      -2.90073858      -0.20559066      -2.52979356       0.00000000
