10
Lattice="16.28999089631971 0.0 0.0 0.0 16.28999089631971 0.0 0.0 0.0 34.26581377546328" Properties=species:S:1:pos:R:3:initial_magmoms:R:1 pbc="T T T"
Si      -0.19357407      -0.18107964       2.27024849       0.00000000
Si      -0.88912449       2.19118419       0.13932488       0.00000000
Si       2.28260367       0.50143878      -0.43288027       0.00000000
Si      -1.12671414      -1.91005137      -0.95543422       0.00000000
Si      -2.22008754       1.93521942      -1.73230918       0.00000000
Si      -0.40026159      -1.50361587      -3.16170840       0.00000000
Si       1.00488123       3.56717184       0.03166163       0.00000000
Si      -1.20158950       0.70244109      -3.44532670       0.00000000
Si       3.20805486      -1.29676545      -1.55854714       0.00000000
Si       0.62551971      -2.17728882       3.09684318       0.00000000
