10
Lattice="16.28999089631971 0.0 0.0 0.0 16.28999089631971 0.0 0.0 0.0 34.26581377546328" Properties=species:S:1:pos:R:3:initial_magmoms:R:1 pbc="T T T"
Si      -1.37752868       1.77968250      -0.63134797       0.00000000
Si       2.23354796      -0.05734080      -0.77570993       0.00000000
Si      -1.39396529      -1.86227280      -0.43812294       0.00000000
Si      -3.22991345      -0.91873971       0.74613851       0.00000000
Si       0.27636799       3.30339471      -1.12953892       0.00000000
Si       1.59002780       0.78011181       3.18065741       0.00000000
Si       3.09178661       1.93290624       0.38597034       0.00000000
Si       3.05264174      -2.05354998       0.05088476       0.00000000
Si      -3.06404867       1.88226063       0.96886643       0.00000000
Si      -0.37269467      -3.68131194       0.56336456       0.00000000
