10
Lattice="16.28999089631971 0.0 0.0 0.0 16.28999089631971 0.0 0.0 0.0 34.26581377546328" Properties=species:S:1:pos:R:3:initial_magmoms:R:1 pbc="T T T"
Si      -1.76816547      -1.32297606       0.81974152       0.00000000
Si      -1.17659412       1.90975815       0.79507012       0.00000000
Si       0.43508961      -0.23718240      -2.33316056       0.00000000
Si       1.81679112      -0.48563748       1.50471552       0.00000000
Si      -0.91150695       1.50933366       3.17222801       0.00000000
Si      -0.83526975      -3.42163631       1.17768241       0.00000000
Si       0.93074544       0.09713727       3.60956284       0.00000000
Si       2.72886822      -0.55083006      -2.62318657       0.00000000
Si      -3.44048710      -1.39276242      -0.93919221       0.00000000
Si      -2.37299688      -0.34986033       2.99716387       0.00000000
