10
Lattice="16.28999089631971 0.0 0.0 0.0 16.28999089631971 0.0 0.0 0.0 34.26581377546328" Properties=species:S:1:pos:R:3:initial_magmoms:R:1 pbc="T T T"
Si       1.35726651       1.33951041      -1.35741013       0.00000000
Si      -1.35436689       1.35443205       1.35983958       0.00000000
Si       1.35971001      -1.36021500       1.35833188       0.00000000
Si      -1.34851878      -1.36378251      -1.39347149       0.00000000
Si      -2.70979263       2.70666495      -0.00054825       0.00000000
Si       0.00311139       2.71182888       2.71638964       0.00000000
Si      -2.71214816      -0.00278559       2.71628684       0.00000000
Si      -2.70994738      -2.71911051      -0.00531120       0.00000000
Si       2.71961550       2.71212210      -0.00020559       0.00000000
Si       0.00314397      -2.71785618       2.71594418       0.00000000
