10
Lattice="16.28999089631971 0.0 0.0 0.0 16.28999089631971 0.0 0.0 0.0 34.26581377546328" Properties=species:S:1:pos:R:3:initial_magmoms:R:1 pbc="T T T"
Si      -1.62170208      -1.15083963      -1.31323805       0.00000000
Si       1.09863018       1.66089582      -1.35278082       0.00000000
Si       1.88747343      -1.90263942       0.09738350       0.00000000
Si      -1.72797804       1.44116001       1.56879263       0.00000000
Si       2.45848680       0.28142604      -2.68832592       0.00000000
Si      -0.27010449      -2.44639962      -2.70672667       0.00000000
Si       2.81952207       2.47529808       0.13110108       0.00000000
Si       1.60427178       2.52394002       2.38826002       0.00000000
Si      -3.35161537      -2.02377186       0.02916022       0.00000000
Si      -2.95764335       0.27145656      -2.68407696       0.00000000
