10
Lattice="16.28999089631971 0.0 0.0 0.0 16.28999089631971 0.0 0.0 0.0 34.26581377546328" Properties=species:S:1:pos:R:3:initial_magmoms:R:1 pbc="T T T"
Si       0.09625761      -1.06049529       2.13332223       0.00000000
Si       1.06033239       2.12841882       0.20902158       0.00000000
Si      -2.35208052       0.44769807      -0.23598879       0.00000000
Si       0.92782953      -1.70240274      -1.71171542       0.00000000
Si       3.02031261       0.35538264      -0.18136905       0.00000000
Si      -2.68868079       2.06088048       1.55892407       0.00000000
Si       3.06348111      -2.13286599      -0.64039415       0.00000000
Si      -3.42428832      -1.74542463      -0.06527641       0.00000000
Si      -0.68069394      -3.32907327       2.08709762       0.00000000
Si       2.23500429      -1.57710006       2.95621620       0.00000000
