10
Lattice="16.28999089631971 0.0 0.0 0.0 16.28999089631971 0.0 0.0 0.0 34.26581377546328" Properties=species:S:1:pos:R:3:initial_magmoms:R:1 pbc="T T T"
Si       1.23134481      -1.39224114       1.42266256       0.00000000
Si      -1.84640634      -0.95203647      -1.21416867       0.00000000
Si       1.89490167       0.54907074      -1.40503420       0.00000000
Si      -1.45859031       1.34003169       1.40822979       0.00000000
Si       2.62803312       2.59875999      -0.10819094       0.00000000
Si       2.55432087      -2.75897214      -0.00949849       0.00000000
Si      -0.85050090      -1.52563995      -3.33399500       0.00000000
Si       1.41683904      -0.82616364      -3.42771205       0.00000000
Si       2.59369380      -0.01962945       2.77986709       0.00000000
Si      -0.12214242       2.69555517       2.78281396       0.00000000
