10
Lattice="16.28999089631971 0.0 0.0 0.0 16.28999089631971 0.0 0.0 0.0 34.26581377546328" Properties=species:S:1:pos:R:3:initial_magmoms:R:1 pbc="T T T"
Si       1.31701392      -1.25613819       1.53116189       0.00000000
Si       2.07068706       0.74371995      -1.07830978       0.00000000
Si      -1.40299254       1.44427140       1.49454200       0.00000000
Si      -0.73313145      -2.04968925      -1.29684326       0.00000000
Si       1.41698565       0.16384482      -3.33219947       0.00000000
Si      -2.62803312      -2.59875999       0.10819094       0.00000000
Si       2.70760977      -2.60356554       0.21103299       0.00000000
Si      -1.86901686       2.63814921      -2.09016582       0.00000000
Si      -0.03433932      -2.61838944       2.88805804       0.00000000
Si       2.67608862       0.09764226       2.88699579       0.00000000
