10
Lattice="16.28999089631971 0.0 0.0 0.0 16.28999089631971 0.0 0.0 0.0 34.26581377546328" Properties=species:S:1:pos:R:3:initial_magmoms:R:1 pbc="T T T"
Si       1.35560493       1.35677781      -1.35785216       0.00000000
Si      -1.35747828      -1.35739683      -1.35655006       0.00000000
Si       1.35798327      -1.35725022       1.35706405       0.00000000
Si      -1.35770634       1.35773892       1.35699552       0.00000000
Si      -0.00057015      -2.71466334       2.71337425       0.00000000
Si      -0.00311139      -2.71182888      -2.71638964       0.00000000
Si       2.71453302      -2.71437012       0.00000000       0.00000000
Si      -2.71434568      -0.00008145       2.71467635       0.00000000
Si       0.00066789       2.71547784      -2.71364837       0.00000000
Si       2.71494027       2.71467963      -0.00061678       0.00000000
