10
Lattice="16.28999089631971 0.0 0.0 0.0 16.28999089631971 0.0 0.0 0.0 34.26581377546328" Properties=species:S:1:pos:R:3:initial_magmoms:R:1 pbc="T T T"
Si      -1.35809730      -1.35654975      -1.35665286       0.00000000
Si       1.35627282       1.35824391      -1.35678992       0.00000000
Si       1.35821133      -1.35749457       1.35562488       0.00000000
Si      -1.35742941       1.35930276       1.35973678       0.00000000
Si      -0.00216657      -2.70708849       2.71782880       0.00000000
Si       2.71283886      -2.71246419       0.00017133       0.00000000
Si       2.71334385       0.00109143      -2.71354558       0.00000000
Si      -0.00154755      -2.71366965      -2.71371690       0.00000000
Si      -0.00114030       2.71538010      -2.71433369       0.00000000
Si      -2.71608057       0.00070047      -2.71371690       0.00000000
