10
Lattice="16.28999089631971 0.0 0.0 0.0 16.28999089631971 0.0 0.0 0.0 34.26581377546328" Properties=species:S:1:pos:R:3:initial_magmoms:R:1 pbc="T T T"
Si      -1.35728280      -1.35697329      -1.35829762       0.00000000
Si       1.35907470      -1.35610992       1.35816055       0.00000000
Si       1.35790182       1.35816246      -1.35805776       0.00000000
Si      -1.36052451       1.36003581       1.36127874       0.00000000
Si      -0.01153332      -2.70247842       2.70261477       0.00000000
Si      -2.71392214      -2.71479366      -0.00061678       0.00000000
Si       0.00042354      -2.71471221      -2.71529313       0.00000000
Si      -2.71452162       0.00063531      -2.71560153       0.00000000
Si       2.71531494       2.71498914      -0.00126784       0.00000000
Si      -2.71387165       2.71658556      -0.00061678       0.00000000
