10
Lattice="16.28999089631971 0.0 0.0 0.0 16.28999089631971 0.0 0.0 0.0 34.26581377546328" Properties=species:S:1:pos:R:3:initial_magmoms:R:1 pbc="T T T"
Si      -2.25267894       0.62651340       0.51227420       0.00000000
Si       0.26057484       1.97426655       1.33722413       0.00000000
Si       0.62688807      -1.51391115       1.91049151       0.00000000
Si       1.21525029      -0.04864194      -2.25715895       0.00000000
Si      -3.33224982      -1.08278001      -0.81946739       0.00000000
Si       2.45597814       2.60007948       1.01591341       0.00000000
Si      -1.60427178      -2.52394002      -2.38826002       0.00000000
Si      -2.26501047       0.63755802       3.03314300       0.00000000
Si      -0.50564160      -0.86304420      -3.74104084       0.00000000
Si      -0.08897598       1.37394747       3.64492518       0.00000000
