10
Lattice="16.28999089631971 0.0 0.0 0.0 16.28999089631971 0.0 0.0 0.0 34.26581377546328" Properties=species:S:1:pos:R:3:initial_magmoms:R:1 pbc="T T T"
Si       2.24798742       0.64975923      -0.08658976       0.00000000
Si      -0.04241916      -2.26422855      -0.72431118       0.00000000
Si      -0.51075666       1.51415550      -1.81249123       0.00000000
Si      -0.87659748       0.16055424       2.31352624       0.00000000
Si      -2.43128250      -2.37737889      -1.13673474       0.00000000
Si      -1.43620785       3.31235973      -0.68682436       0.00000000
Si       0.21064599       3.51631053       1.11514727       0.00000000
Si       2.76985386       0.56738070      -2.38421665       0.00000000
Si       1.52549334      -3.40094475       0.73572170       0.00000000
Si       2.37504942       2.97641106       0.43061872       0.00000000
