10
Lattice="16.28999089631971 0.0 0.0 0.0 16.28999089631971 0.0 0.0 0.0 34.26581377546328" Properties=species:S:1:pos:R:3:initial_magmoms:R:1 pbc="T T T"
Si      -2.21669433       0.47307789       0.52937285       0.00000000
Si       0.42127569       2.22975891       0.75706931       0.00000000
Si      -0.04944015      -1.84902903       1.52284215       0.00000000
Si       0.87659748      -0.16055424      -2.31352624       0.00000000
Si       2.57873958       1.73973942       1.51016379       0.00000000
Si       0.42862248      -0.47379465       3.54552000       0.00000000
Si       1.08724347       3.35575629      -1.19837897       0.00000000
Si      -3.52491165      -1.38329793      -0.06356312       0.00000000
Si      -2.31678009      -2.54850534       1.61655920       0.00000000
Si       1.64602305      -3.48063543       0.69192996       0.00000000
