10
Lattice="16.28999089631971 0.0 0.0 0.0 16.28999089631971 0.0 0.0 0.0 34.26581377546328" Properties=species:S:1:pos:R:3:initial_magmoms:R:1 pbc="T T T"
Si      -1.89490167      -0.54907074       1.40503420       0.00000000
Si       1.81954413      -1.61735265       0.24950156       0.00000000
Si      -0.47806263      -1.37523438      -2.02267785       0.00000000
Si       0.73313145       2.04968925       1.29684326       0.00000000
Si      -0.66355686      -1.94131188       2.82769675       0.00000000
Si       2.05014537       0.79355106       2.82800515       0.00000000
Si      -0.42862248       0.47379465      -3.54552000       0.00000000
Si       0.65941920      -3.30804288       1.39553571       0.00000000
Si       2.15011710       2.21353407      -2.03535621       0.00000000
Si       3.44074122      -0.55387629       1.50787624       0.00000000
