10
Lattice="16.28999089631971 0.0 0.0 0.0 16.28999089631971 0.0 0.0 0.0 34.26581377546328" Properties=species:S:1:pos:R:3:initial_magmoms:R:1 pbc="T T T"
Si       1.51951491      -1.82928555       0.14110670       0.00000000
Si      -1.76625791      -0.06423147       1.67025376       0.00000000
Si       1.07220780       2.19312270      -0.17071238       0.00000000
Si      -0.43688151      -0.84528810      -2.32147591       0.00000000
Si      -2.59966313       2.28317382       1.27924634       0.00000000
Si       2.74359438      -1.58364864       2.15237403       0.00000000
Si       3.42428832       1.74542463       0.06527641       0.00000000
Si      -2.98198943       1.95323616      -1.62718161       0.00000000
Si      -2.58980768      -1.93210803      -2.23276167       0.00000000
Si       3.08004804      -2.06666343      -1.63848933       0.00000000
