10
Lattice="16.28999089631971 0.0 0.0 0.0 16.28999089631971 0.0 0.0 0.0 34.26581377546328" Properties=species:S:1:pos:R:3:initial_magmoms:R:1 pbc="T T T"
Si      -0.18999027       0.98774971      -2.15257962       0.00000000
Si      -2.16261153       0.21677103       0.97397204       0.00000000
Si       1.18947951       1.49241717       1.46949024       0.00000000
Si       0.54001350      -2.40341031       0.05760087       0.00000000
Si       0.60636267       0.52226247       3.51447515       0.00000000
Si      -2.79422370       2.37922685       0.25939236       0.00000000
Si      -1.67412330      -0.08933436       3.32601307       0.00000000
Si      -0.21716199      -0.80977590      -3.64108741       0.00000000
Si      -2.03362731       2.50969346      -2.01445405       0.00000000
Si       3.50700894       1.13775617       1.34020526       0.00000000
