10
Lattice="16.28999089631971 0.0 0.0 0.0 16.28999089631971 0.0 0.0 0.0 34.26581377546328" Properties=species:S:1:pos:R:3:initial_magmoms:R:1 pbc="T T T"
Si       0.49109463       1.83709498      -1.50320782       0.00000000
Si       0.25309773       1.04380456       2.17379017       0.00000000
Si      -1.96511157      -0.73444980      -1.30014850       0.00000000
Si       1.81514583      -1.92016813      -0.10389401       0.00000000
Si       1.96437852       0.56752242      -2.89261882       0.00000000
Si      -0.76515759      -2.15138839      -2.88240760       0.00000000
Si       3.41728362      -0.79672828      -1.51763374       0.00000000
Si      -3.07690407      -2.28983710       0.21830762       0.00000000
Si       2.02750227       3.25733863      -0.30654214       0.00000000
Si       0.67414536      -3.49728448      -1.52880440       0.00000000
