10
Lattice="16.28999089631971 0.0 0.0 0.0 16.28999089631971 0.0 0.0 0.0 34.26581377546328" Properties=species:S:1:pos:R:3:initial_magmoms:R:1 pbc="T T T"
Si      -1.00611927       0.91452060       1.92632233       0.00000000
Si      -1.06909641       1.55837959      -1.49220849       0.00000000
Si       2.35410048       0.13218846       0.59485486       0.00000000
Si      -1.15903350      -2.17707120      -0.60907518       0.00000000
Si       0.60385401       3.28570603      -1.72079586       0.00000000
Si      -0.40697307      -0.52923996       3.69889387       0.00000000
Si       2.63811663      -1.50243714       2.23015747       0.00000000
Si       0.55920312      -3.77681436      -0.15889067       0.00000000
Si       1.94851206      -2.58570585      -2.04978213       0.00000000
Si       3.57013269      -0.77619636      -1.16140614       0.00000000
