10
Lattice="16.28999089631971 0.0 0.0 0.0 16.28999089631971 0.0 0.0 0.0 34.26581377546328" Properties=species:S:1:pos:R:3:initial_magmoms:R:1 pbc="T T T"
Si       0.76900203       1.70513946       1.48705975       0.00000000
Si       1.84142160      -1.63129037       0.07935967       0.00000000
Si      -1.91715381      -0.79376772       1.62101174       0.00000000
Si       0.28817010       1.05381639      -2.46148611       0.00000000
Si      -0.76732416      -2.17809273      -1.62635923       0.00000000
Si      -2.78738190      -1.59756845      -0.52786516       0.00000000
Si      -1.70023617       2.58668910      -1.90679080       0.00000000
Si       2.70431919       2.47619403       0.25884410       0.00000000
Si       2.02326687       0.49361958       3.04929732       0.00000000
Si      -0.69726087      -2.23158567       3.03603987       0.00000000
