10
Lattice="16.28999089631971 0.0 0.0 0.0 16.28999089631971 0.0 0.0 0.0 34.26581377546328" Properties=species:S:1:pos:R:3:initial_magmoms:R:1 pbc="T T T"
Si      -1.63230687       0.13861161      -1.89054880       0.00000000
Si       1.23137739      -1.78829991       1.55111146       0.00000000
Si      -2.12253813      -1.32932916       1.77743729       0.00000000
Si       3.07416735      -0.37118394       1.34304932       0.00000000
Si       0.10024866       1.12109409      -3.21310715       0.00000000
Si       1.05642279       2.90836773      -1.70421120       0.00000000
Si      -0.86354919       2.77360056       2.12547535       0.00000000
Si       1.20534597       3.36826701       0.97136783       0.00000000
Si       1.54583955      -3.51127692       0.02981127       0.00000000
Si       2.83055040       1.88711505       2.01609881       0.00000000
