10
Lattice="16.28999089631971 0.0 0.0 0.0 16.28999089631971 0.0 0.0 0.0 34.26581377546328" Properties=species:S:1:pos:R:3:initial_magmoms:R:1 pbc="T T T"
Si       0.97906158       1.82535966      -1.07820870       0.00000000
Si       1.56801024      -1.72203219      -0.36558217       0.00000000
Si      -2.16560889      -0.28745334      -1.00258401       0.00000000
Si       0.22744098       0.11860749       2.40131531       0.00000000
Si       3.12745194       1.26174195      -0.09190096       0.00000000
Si      -1.60819767      -1.28648646       2.84276203       0.00000000
Si      -3.16674342      -1.15725789       1.03194982       0.00000000
Si       0.78809391       1.20311424      -3.41873642       0.00000000
Si       3.41923842      -0.65782278      -1.45393356       0.00000000
Si       0.54094203      -3.57313005      -1.35589901       0.00000000
