10
Lattice="16.28999089631971 0.0 0.0 0.0 16.28999089631971 0.0 0.0 0.0 34.26581377546328" Properties=species:S:1:pos:R:3:initial_magmoms:R:1 pbc="T T T"
Si      -1.83563865      -1.40509395       0.44144673       0.00000000
Si       0.09063756       2.18341386       0.92473203       0.00000000
Si      -0.22744098      -0.11860749      -2.40131531       0.00000000
Si       2.18676960      -0.78907131       0.73417974       0.00000000
Si       3.37514139       1.00823697      -0.12746890       0.00000000
Si       2.41160418      -2.54371608      -0.71982235       0.00000000
Si       1.34056926      -1.84063968      -2.76689748       0.00000000
Si       2.36224548       2.75301000       1.06275481       0.00000000
Si      -2.72163546      -0.64819539       2.58463751       0.00000000
Si      -0.99082296      -3.64267206       0.63878366       0.00000000
