10
Lattice="16.28999089631971 0.0 0.0 0.0 16.28999089631971 0.0 0.0 0.0 34.26581377546328" Properties=species:S:1:pos:R:3:initial_magmoms:R:1 pbc="T T T"
Si      -1.35738054       1.35660167       1.35774936       0.00000000
Si       1.35829278       1.35762787      -1.35678992       0.00000000
Si      -1.35734796      -1.35900954      -1.35730391       0.00000000
Si       1.35793440      -1.35873261       1.35757803       0.00000000
Si       2.71401174      -0.00201996       2.71402530       0.00000000
Si       0.00350235       2.71327610      -2.71477915       0.00000000
Si       2.71184517      -0.00127062      -2.71621831       0.00000000
Si       2.71409319       2.71427142       0.00071958       0.00000000
Si      -2.71474479       2.71420300      -0.00013706       0.00000000
Si       0.00035838      -2.71578735       2.71378544       0.00000000
