10
Lattice="16.28999089631971 0.0 0.0 0.0 16.28999089631971 0.0 0.0 0.0 34.26581377546328" Properties=species:S:1:pos:R:3:initial_magmoms:R:1 pbc="T T T"
Si       1.35329175      -1.35573525      -1.36103888       0.00000000
Si      -1.35971001       1.36075813      -1.35894867       0.00000000
Si      -1.36705680      -1.35148356       1.37858299       0.00000000
Si       1.36247931       1.36742725       1.36837177       0.00000000
Si      -0.11080458       2.63699981       2.75778277       0.00000000
Si       2.71362078      -2.71378368      -0.00421470       0.00000000
Si       2.70907587       2.71840094      -0.00376924       0.00000000
Si       2.71160082       0.00246693      -2.71714349       0.00000000
Si      -0.00278559      -2.71244790      -2.71748615       0.00000000
Si       0.07224615      -2.69737965       2.73218619       0.00000000
