10
Lattice="16.28999089631971 0.0 0.0 0.0 16.28999089631971 0.0 0.0 0.0 34.26581377546328" Properties=species:S:1:pos:R:3:initial_magmoms:R:1 pbc="T T T"
Si      -1.24071875       1.38315132       1.45237446       0.00000000
Si      -1.68973631      -0.91950534      -1.47960008       0.00000000
Si       1.11252555       1.80879273      -1.18682796       0.00000000
Si       1.48449141      -1.33470486       1.41394190       0.00000000
Si      -2.51695880       2.67771762      -0.03984774       0.00000000
Si      -0.69790758       3.32783523      -1.44886362       0.00000000
Si      -2.62515698      -2.60894124      -0.03938857       0.00000000
Si      -3.48531785       0.88640406      -1.28575826       0.00000000
Si      -2.59423856       0.02748123       2.81022320       0.00000000
Si       0.12306281      -2.69003286       2.80210219       0.00000000
