10
Lattice="16.28999089631971 0.0 0.0 0.0 16.28999089631971 0.0 0.0 0.0 34.26581377546328" Properties=species:S:1:pos:R:3:initial_magmoms:R:1 pbc="T T T"
Si      -2.16440343       0.53989947       0.68452854       0.00000000
Si       0.03976389       1.17125100      -2.02816038       0.00000000
Si      -0.12706200      -2.32665183      -0.51720848       0.00000000
Si       1.51055541       0.99437418       1.56663388       0.00000000
Si      -0.94553676      -0.56910744      -3.34588726       0.00000000
Si      -1.83228291       2.72890080       1.46524128       0.00000000
Si      -0.67290732      -1.07611740       3.39307131       0.00000000
Si       3.42726939      -0.31651470       1.15472430       0.00000000
Si       0.39480444      -2.40903036      -2.81483538       0.00000000
Si       1.48234113      -3.39959268       0.72177550       0.00000000
