10
Lattice="16.28999089631971 0.0 0.0 0.0 16.28999089631971 0.0 0.0 0.0 34.26581377546328" Properties=species:S:1:pos:R:3:initial_magmoms:R:1 pbc="T T T"
Si      -1.17095778      -2.03105349      -0.32693031       0.00000000
Si       1.01250495       0.03943809      -2.15336774       0.00000000
Si      -1.33341795       2.01109972      -0.14453328       0.00000000
Si      -0.51725637      -1.45117836       1.92695937       0.00000000
Si       0.18412587       0.65770875       3.08386812       0.00000000
Si       1.27532781       2.55790208       1.56118561       0.00000000
Si       2.64461634       2.40466857      -0.54558059       0.00000000
Si      -2.33033337       1.77396471      -2.25476034       0.00000000
Si      -3.32842167      -1.54103400      -1.08002479       0.00000000
Si      -0.49805046      -0.95493609      -3.72000162       0.00000000
