10
Lattice="16.28999089631971 0.0 0.0 0.0 16.28999089631971 0.0 0.0 0.0 34.26581377546328" Properties=species:S:1:pos:R:3:initial_magmoms:R:1 pbc="T T T"
Si      -1.41312492      -1.76611523      -0.55308481       0.00000000
Si      -1.42125363       1.75403064       0.72503076       0.00000000
Si       1.84964546       0.13328315      -1.49357913       0.00000000
Si       0.96125661      -0.63717846       2.08336264       0.00000000
Si       3.24868931       1.17958008       0.09704084       0.00000000
Si       2.59776697       1.02329382       2.36184107       0.00000000
Si      -0.87799842      -3.52989869       0.96866083       0.00000000
Si      -0.68955570      -2.69822903      -2.57271300       0.00000000
Si      -0.62483553      -0.07411787       3.75066954       0.00000000
Si      -0.96148467       2.13487455       3.02080730       0.00000000
