10
Lattice="16.28999089631971 0.0 0.0 0.0 16.28999089631971 0.0 0.0 0.0 34.26581377546328" Properties=species:S:1:pos:R:3:initial_magmoms:R:1 pbc="T T T"
Si       1.19936754      -1.29753108       1.49169450       0.00000000
Si      -1.34099280      -1.35249354      -1.34596192       0.00000000
Si      -1.35159759       1.29555999       1.39348863       0.00000000
Si       1.37461536       1.36383138      -1.34075351       0.00000000
Si       2.15757792       0.54376020       2.80411017       0.00000000
Si       0.27010449       2.44639962       2.70672667       0.00000000
Si      -2.67350665      -2.71130923       0.01761264       0.00000000
Si      -2.69948595       0.00500103      -2.69932525       0.00000000
Si       0.01409085      -2.70631634      -2.69887980       0.00000000
Si      -2.68753886       2.71785618       0.02264972       0.00000000
