10
Lattice="16.28999089631971 0.0 0.0 0.0 16.28999089631971 0.0 0.0 0.0 34.26581377546328" Properties=species:S:1:pos:R:3:initial_magmoms:R:1 pbc="T T T"
Si       1.35351981       1.35567009      -1.35784873       0.00000000
Si      -1.35597960       1.35521397       1.35627593       0.00000000
Si       1.35729230      -1.35734796       1.35548782       0.00000000
Si      -1.35744570      -1.36098063      -1.35694069       0.00000000
Si       2.59423856      -0.02748123      -2.81022320       0.00000000
Si       2.71745612       2.70826137      -0.00335805       0.00000000
Si       0.00065160       2.71314837       2.71316865       0.00000000
Si      -2.71459818       2.71223613      -0.00770981       0.00000000
Si      -2.71456560      -0.00143352       2.71323718       0.00000000
Si       2.71510058      -0.00118917       2.71347704       0.00000000
