10
Lattice="16.28999089631971 0.0 0.0 0.0 16.28999089631971 0.0 0.0 0.0 34.26581377546328" Properties=species:S:1:pos:R:3:initial_magmoms:R:1 pbc="T T T"
Si      -1.35698958      -1.35757602      -1.35840041       0.00000000
Si       1.35746199      -1.35806472       1.35757803       0.00000000
Si       1.35767198       1.35720135      -1.35840041       0.00000000
Si      -1.36112724       1.36045935       1.36025077       0.00000000
Si      -2.71391400       2.71544526      -0.00071958       0.00000000
Si      -2.71316466      -2.71621089      -0.00095944       0.00000000
Si       0.00065160       2.71428867      -2.71543020       0.00000000
Si       0.00004887      -2.71463076      -2.71519034       0.00000000
Si      -2.71456560      -0.00029322      -2.71536166       0.00000000
Si       2.71510058      -0.00004887      -2.71512180       0.00000000
