10
Lattice="16.28999089631971 0.0 0.0 0.0 16.28999089631971 0.0 0.0 0.0 34.26581377546328" Properties=species:S:1:pos:R:3:initial_magmoms:R:1 pbc="T T T"
Si       1.42972443      -1.82316051       0.34868912       0.00000000
Si      -0.29178648       1.91956473       1.36203259       0.00000000
Si      -1.85122818      -1.06420941       1.08835139       0.00000000
Si       1.06295508       0.97445151      -2.07417940       0.00000000
Si       1.30657203      -1.28384748      -2.74722889       0.00000000
Si      -2.44017684       2.48318244       0.37572486       0.00000000
Si       1.48660911       3.16102563       0.57772194       0.00000000
Si       2.91030624       1.87041780      -0.79866803       0.00000000
Si      -0.78019326      -1.76728581       3.13542651       0.00000000
Si      -0.53621793      -2.70096345      -2.53916675       0.00000000
