10
Lattice="16.28999089631971 0.0 0.0 0.0 16.28999089631971 0.0 0.0 0.0 34.26581377546328" Properties=species:S:1:pos:R:3:initial_magmoms:R:1 pbc="T T T"
Si       2.16715644       0.36585711       0.67181592       0.00000000
Si       0.09106110       0.72288504      -2.18091747       0.00000000
Si      -0.25785441      -2.21377842       0.65862357       0.00000000
Si      -2.11885659       0.77875974       0.60581993       0.00000000
Si      -0.90995940      -1.15496100      -3.12706565       0.00000000
Si       0.20191455      -1.83293451       2.95440011       0.00000000
Si       2.40301935      -1.05013485       2.51271353       0.00000000
Si      -2.52654642      -2.63142144       0.31168202       0.00000000
Si       3.59886729      -0.71451198      -0.90526904       0.00000000
Si      -3.18989151       1.48183614      -1.44125520       0.00000000
