10
Lattice="16.28999089631971 0.0 0.0 0.0 16.28999089631971 0.0 0.0 0.0 34.26581377546328" Properties=species:S:1:pos:R:3:initial_magmoms:R:1 pbc="T T T"
Si      -2.14195581      -0.89598258      -0.41256063       0.00000000
Si       1.32245478      -1.20607902      -1.58112833       0.00000000
Si      -0.36781191       2.34870849      -0.37503954       0.00000000
Si       0.59715882      -0.54846801       2.31164162       0.00000000
Si      -2.15728470      -0.31918626      -2.80589199       0.00000000
Si      -2.20731129       2.81419524       1.09852834       0.00000000
Si       1.74259017       3.42591732       0.23975803       0.00000000
Si       1.65910392      -3.41507144      -0.85126609       0.00000000
Si      -1.52028054      -0.15341922       3.61103627       0.00000000
Si       3.78163148      -0.59740317       1.19323910       0.00000000
