10
Lattice="16.28999089631971 0.0 0.0 0.0 16.28999089631971 0.0 0.0 0.0 34.26581377546328" Properties=species:S:1:pos:R:3:initial_magmoms:R:1 pbc="T T T"
Si      -1.98229752      -0.22986819       1.30532264       0.00000000
Si       1.54051339      -1.82879685       0.07038202       0.00000000
Si       0.57029661       1.80460620      -1.46842800       0.00000000
Si      -0.13494636       0.66609810       2.58083400       0.00000000
Si       1.39726076      -1.19249316       2.49619740       0.00000000
Si      -1.73868057      -2.48816718       0.63227315       0.00000000
Si       2.11596090       0.40229784      -2.75538416       0.00000000
Si      -0.07198551      -3.59388351      -0.44442785       0.00000000
Si       1.06925021       2.75196744       2.15600621       0.00000000
Si      -3.60750195       1.25128377       0.26059166       0.00000000
