10
Lattice="16.28999089631971 0.0 0.0 0.0 16.28999089631971 0.0 0.0 0.0 34.26581377546328" Properties=species:S:1:pos:R:3:initial_magmoms:R:1 pbc="T T T"
Si       1.72991329       0.87293223      -1.34239827       0.00000000
Si      -0.86486444      -1.69756461      -1.40914811       0.00000000
Si      -1.71538002       1.68015060       0.06774355       0.00000000
Si       0.66127300      -1.68533082       1.67381741       0.00000000
Si      -1.88383491       1.11319344       2.36811171       0.00000000
Si       0.39397202       2.29522842      -2.71323718       0.00000000
Si      -1.49165316      -2.77215075       1.76253165       0.00000000
Si      -2.33668062      -0.42902973      -2.72478477       0.00000000
Si      -3.53417481       0.98279199      -1.28640790       0.00000000
Si       2.71785292      -2.77573455       0.32566248       0.00000000
