10
Lattice="16.28999089631971 0.0 0.0 0.0 16.28999089631971 0.0 0.0 0.0 34.26581377546328" Properties=species:S:1:pos:R:3:initial_magmoms:R:1 pbc="T T T"
Si       1.25698527       0.84263283      -1.76983027       0.00000000
Si       0.01469358      -2.33929287      -0.12969618       0.00000000
Si      -2.24942094       0.65915856      -0.16670328       0.00000000
Si       0.93305862       0.62506359       2.08349971       0.00000000
Si      -2.01471462       2.46005064       1.31495134       0.00000000
Si       0.58961655      -0.71451198      -3.45845052       0.00000000
Si       0.37962216      -2.85260706       2.15083207       0.00000000
Si       2.21083060      -2.79257841      -1.07238351       0.00000000
Si       0.65829519       3.16105821      -1.87430680       0.00000000
Si      -0.90288954       1.56859668       3.26776116       0.00000000
