10
Lattice="16.28999089631971 0.0 0.0 0.0 16.28999089631971 0.0 0.0 0.0 34.26581377546328" Properties=species:S:1:pos:R:3:initial_magmoms:R:1 pbc="T T T"
Si       1.02127062      -1.81903914       1.00148750       0.00000000
Si      -0.93305862      -0.62506359      -2.08349971       0.00000000
Si       1.39396529       1.86227280       0.43812294       0.00000000
Si      -1.83594816       0.94353309       1.18426145       0.00000000
Si      -0.55343646      -3.47767065       0.06733236       0.00000000
Si      -2.94777324       1.83498705      -0.76854837       0.00000000
Si       0.01643661       3.64195530      -0.19322503       0.00000000
Si       3.13838972      -2.04765300      -0.10392827       0.00000000
Si      -0.91836504      -2.96435646      -2.21319588       0.00000000
Si       0.32392665       0.21756924      -3.85332998       0.00000000
