10
Lattice="16.28999089631971 0.0 0.0 0.0 16.28999089631971 0.0 0.0 0.0 34.26581377546328" Properties=species:S:1:pos:R:3:initial_magmoms:R:1 pbc="T T T"
Si       1.33168030      -1.28107818      -1.45903917       0.00000000
Si       1.24181977       1.53306819       1.31135343       0.00000000
Si      -0.77767175      -1.89615600       1.32194157       0.00000000
Si      -1.40840426       1.43050635      -1.42371109       0.00000000
Si      -2.59646654      -2.59351461      -0.03220988       0.00000000
Si       2.56134561      -0.11137473       2.79383042       0.00000000
Si       2.66762157      -2.70337437      -0.08820025       0.00000000
Si       2.65390539       2.78037720      -0.15450464       0.00000000
Si      -0.03900170      -2.63595006      -2.82223680       0.00000000
Si       2.67693945       0.07581366      -2.82388156       0.00000000
