10
Lattice="16.28999089631971 0.0 0.0 0.0 16.28999089631971 0.0 0.0 0.0 34.26581377546328" Properties=species:S:1:pos:R:3:initial_magmoms:R:1 pbc="T T T"
Si       2.02597101      -1.08382257       0.19089496       0.00000000
Si      -0.28401615       1.63462561      -1.63530261       0.00000000
Si      -0.72356922       0.93211380       2.01962819       0.00000000
Si      -1.34672688      -1.92368610      -0.12647519       0.00000000
Si       1.70522091      -1.68060672       2.44555250       0.00000000
Si      -3.04508970       0.97319718       1.46873640       0.00000000
Si       0.93201606       0.72624078      -3.39156361       0.00000000
Si       3.54235891       0.76711239       0.27666234       0.00000000
Si      -0.18844272      -0.83166966       3.54137383       0.00000000
Si      -3.09299859      -1.38347712       1.42518452       0.00000000
