10
Lattice="16.28999089631971 0.0 0.0 0.0 16.28999089631971 0.0 0.0 0.0 34.26581377546328" Properties=species:S:1:pos:R:3:initial_magmoms:R:1 pbc="T T T"
Si       0.80262296      -2.17007235       0.22622303       0.00000000
Si      -0.13888577       0.18933867      -2.34463962       0.00000000
Si       1.88857138       1.36594908       0.63131371       0.00000000
Si      -2.19613702       0.45328554       0.94268733       0.00000000
Si      -1.62121405       2.07806643      -2.38606701       0.00000000
Si      -0.41516761      -3.39591114      -1.31988562       0.00000000
Si      -1.83120844      -0.06002865       3.22321557       0.00000000
Si      -2.21083060       2.79257841       1.07238351       0.00000000
Si       3.20687221      -1.98777096       0.19709707       0.00000000
Si      -0.65103052      -1.97991918      -3.16078323       0.00000000
