10
Lattice="16.28999089631971 0.0 0.0 0.0 16.28999089631971 0.0 0.0 0.0 34.26581377546328" Properties=species:S:1:pos:R:3:initial_magmoms:R:1 pbc="T T T"
Si      -1.81043313       1.51904250      -0.26203566       0.00000000
Si       1.84640634       0.95203647       1.21416867       0.00000000
Si       0.99590544      -0.57360348      -2.11982632       0.00000000
Si      -1.11252555      -1.80879273       1.18682796       0.00000000
Si       0.38781603       2.29206816       2.62239846       0.00000000
Si      -2.35324430      -0.42564141       2.63920242       0.00000000
Si       1.28583486      -2.84407110      -1.89274665       0.00000000
Si      -2.32934522       0.82021779      -2.69453287       0.00000000
Si      -1.13995628       3.43556100       1.20362165       0.00000000
Si      -0.21222612       0.59160393      -3.79994864       0.00000000
