10
Lattice="16.28999089631971 0.0 0.0 0.0 16.28999089631971 0.0 0.0 0.0 34.26581377546328" Properties=species:S:1:pos:R:3:initial_magmoms:R:1 pbc="T T T"
Si      -1.35395920       1.35881406      -1.35692698       0.00000000
Si      -1.35640270      -1.35861858       1.35747524       0.00000000
Si       1.35836068       1.35700587       1.35757803       0.00000000
Si       1.36040182      -1.36350558      -1.35905147       0.00000000
Si      -2.71378324       2.71441899      -0.00058252       0.00000000
Si       0.00069957       2.71453302       2.71501901       0.00000000
Si      -2.71303390      -2.71655298       0.00058252       0.00000000
Si      -0.00353449      -2.71609686      -2.71354215       0.00000000
Si      -2.71479322       0.00006516       2.71508754       0.00000000
Si       0.00061768      -2.71570590       2.71450502       0.00000000
