10
Lattice="16.28999089631971 0.0 0.0 0.0 16.28999089631971 0.0 0.0 0.0 34.26581377546328" Properties=species:S:1:pos:R:3:initial_magmoms:R:1 pbc="T T T"
Si       2.26634625      -0.60064488      -0.17156903       0.00000000
Si      -0.72645255      -0.40643550       2.20627418       0.00000000
Si      -0.80132791       2.20605696      -0.28361830       0.00000000
Si      -0.91240616      -1.20646998      -1.83716263       0.00000000
Si       1.80462249      -2.94609537      -0.01857208       0.00000000
Si      -0.30967290      -3.32723250      -0.98939166       0.00000000
Si       0.40026159       1.50361587       3.16170840       0.00000000
Si      -2.78217629       1.69753203      -1.41250616       0.00000000
Si      -3.13425206      -0.57174642      -1.57722202       0.00000000
Si      -3.09689909      -0.26482653       1.91621391       0.00000000
