10
Lattice="16.28999089631971 0.0 0.0 0.0 16.28999089631971 0.0 0.0 0.0 34.26581377546328" Properties=species:S:1:pos:R:3:initial_magmoms:R:1 pbc="T T T"
Si       1.77635934      -1.15116543       1.01896307       0.00000000
Si      -0.81143748       1.74379563       1.35168431       0.00000000
Si       0.63700416       1.07579160      -1.99625889       0.00000000
Si      -1.47507579      -1.75997160      -0.59050310       0.00000000
Si      -2.25850099       2.64593583      -0.32648486       0.00000000
Si       2.11064643      -2.78018172      -0.68165021       0.00000000
Si      -2.11479061       0.70674165       2.97129317       0.00000000
Si      -0.06538806      -3.51657117      -1.29343240       0.00000000
Si      -2.22586886      -2.70578529       1.41774884       0.00000000
Si      -1.09030599       2.73321765      -2.41683773       0.00000000
