10
Lattice="10.86 0.0 0.0 0.0 10.86 0.0 0.0 0.0 10.86" Properties=species:S:1:pos:R:3:initial_magmoms:R:1 pbc="T T T"
Si       1.31299572      -1.31252874       1.40073366       0.00000000
Si      -1.40200428      -1.31252874      -1.31426634       0.00000000
Si       1.31299572       1.40247126      -1.31426634       0.00000000
Si       2.67049572      -2.67002874       0.04323366       0.00000000
Si      -0.04450428      -2.67002874      -2.67176634       0.00000000
Si       2.67049572       0.04497126      -2.67176634       0.00000000
Si      -2.71299090       0.05773176       2.70797358       0.00000000
Si      -0.04450428      -2.67002874       2.75823366       0.00000000
Si       2.67049572       0.04497126       2.75823366       0.00000000
Si      -2.75950428      -2.67002874       0.04323366       0.00000000
