10
Lattice="10.86 0.0 0.0 0.0 10.86 0.0 0.0 0.0 10.86" Properties=species:S:1:pos:R:3:initial_magmoms:R:1 pbc="T T T"
Si      -1.33781082       1.28931006       1.37629866       0.00000000
Si       1.37718918       1.28931006      -1.33870134       0.00000000
Si      -1.33781082      -1.42568994      -1.33870134       0.00000000
Si      -2.69531082       2.64681006       0.01879866       0.00000000
Si       0.01968918       2.64681006      -2.69620134       0.00000000
Si       0.01968918       2.64681006       2.73379866       0.00000000
Si       2.73468918       2.64681006       0.01879866       0.00000000
Si      -2.69531082      -0.06818994      -2.69620134       0.00000000
Si      -2.69531082      -0.06818994       2.73379866       0.00000000
Si       2.73468918      -0.06818994      -2.69620134       0.00000000
