10
Lattice="16.28999089631971 0.0 0.0 0.0 16.28999089631971 0.0 0.0 0.0 34.474598006748145" Properties=species:S:1:pos:R:3:initial_magmoms:R:1 pbc="T T T"
Si      -1.35584928       1.35313882      -1.35385269       0.00000000
Si       1.35760860       1.35474990       1.35750700       0.00000000
Si      -1.35723393      -1.36044842       1.35778280       0.00000000
Si       1.35716877      -1.36108373      -1.36298847       0.00000000
Si      -0.01453068       2.70060689      -2.71599998       0.00000000
Si      -2.71368594       2.71062524       0.00041370       0.00000000
Si      -0.00061902       2.71279181       2.71525533       0.00000000
Si       2.71705797       2.71306874       0.00127556       0.00000000
Si       2.71573848      -0.00213055       2.71470374       0.00000000
Si      -2.71541268      -0.00224058       2.71542770       0.00000000
