10
Lattice="16.28999089631971 0.0 0.0 0.0 16.28999089631971 0.0 0.0 0.0 34.474598006748145" Properties=species:S:1:pos:R:3:initial_magmoms:R:1 pbc="T T T"
Si      -0.02353905      -0.22799484      -2.42677173       0.00000000
Si      -0.43054470      -2.23860438       0.99762647       0.00000000
Si       2.24156916       1.12523175      -0.38118584       0.00000000
Si      -0.43996032       1.67058837       2.18313961       0.00000000
Si       1.77473034      -2.61586449       0.26690249       0.00000000
Si      -1.92006972       1.66591314      -2.40850019       0.00000000
Si      -2.33163657       2.95067286      -0.29044865       0.00000000
Si       1.45692873       3.45364290      -0.48426495       0.00000000
Si      -0.32514840       3.73935321       1.02179318       0.00000000
Si       3.71798073       0.27771192       1.49485388       0.00000000
