10
Lattice="16.28999089631971 0.0 0.0 0.0 16.28999089631971 0.0 0.0 0.0 34.474598006748145" Properties=species:S:1:pos:R:3:initial_magmoms:R:1 pbc="T T T"
Si      -0.78350013      -0.18907803      -2.21568365       0.00000000
Si       2.37092805      -0.22972158      -0.07463755       0.00000000
Si      -0.84527181      -1.88949339       1.22767560       0.00000000
Si      -0.16894359       2.17280907       1.14052376       0.00000000
Si       1.84637376      -2.08787301       2.00656062       0.00000000
Si       3.08413683       1.63103625      -1.51398729       0.00000000
Si      -2.10605265       1.91655108       2.58301070       0.00000000
Si      -0.04364091      -2.22169536      -3.22103244       0.00000000
Si      -3.10114359       0.27155430      -2.40488035       0.00000000
Si       2.07801756       2.47347360       2.29001093       0.00000000
