10
Lattice="16.28999089631971 0.0 0.0 0.0 16.28999089631971 0.0 0.0 0.0 34.474598006748145" Properties=species:S:1:pos:R:3:initial_magmoms:R:1 pbc="T T T"
Si      -1.29650481      -1.36967949      -1.42638729       0.00000000
Si       1.34011314       1.48097277      -1.27190653       0.00000000
Si       1.03718430      -1.29184587       1.73545223       0.00000000
Si      -1.83413997       1.21360500       1.07902105       0.00000000
Si      -0.74489283      -1.00613556       3.24151036       0.00000000
Si       1.59303168       3.40325793       0.45361701       0.00000000
Si      -2.75138100      -1.79481591       1.92926853       0.00000000
Si      -2.33981415      -3.07957563      -0.18878300       0.00000000
Si      -0.05564664       2.55715533      -2.93161803       0.00000000
Si       2.62716975      -0.11681559      -2.91720764       0.00000000
