10
Lattice="16.28999089631971 0.0 0.0 0.0 16.28999089631971 0.0 0.0 0.0 34.474598006748145" Properties=species:S:1:pos:R:3:initial_magmoms:R:1 pbc="T T T"
Si       1.35733167       1.35454608      -1.35616249       0.00000000
Si      -1.36080144       1.35408996       1.35829992       0.00000000
Si      -1.35744570      -1.36001952      -1.35623144       0.00000000
Si       1.35861858      -1.36216980       1.36005813       0.00000000
Si      -2.70500500       0.00588069       2.71139417       0.00000000
Si      -0.00017919       2.71225242      -2.71360055       0.00000000
Si      -2.71526933       2.71127502       0.00093081       0.00000000
Si       2.71458189      -0.00267156      -2.71384187       0.00000000
Si      -2.71419419      -2.71463076       0.00144793       0.00000000
Si      -2.71536870      -0.00260640      -2.71346265       0.00000000
