10
Lattice="16.28999089631971 0.0 0.0 0.0 16.28999089631971 0.0 0.0 0.0 34.474598006748145" Properties=species:S:1:pos:R:3:initial_magmoms:R:1 pbc="T T T"
Si      -0.79568505      -1.68987573      -1.39063711       0.00000000
Si       0.05893722      -1.34174214       1.93871458       0.00000000
Si      -2.22927021       0.88332266       0.06825974       0.00000000
Si       2.32132500       0.73242025      -0.24280473       0.00000000
Si       1.24330167      -3.13281135       0.86283072       0.00000000
Si       2.81810484       0.63069083       2.13301352       0.00000000
Si      -0.77919957      -0.60347934      -3.49186503       0.00000000
Si      -2.55353895      -2.68301187      -0.09408123       0.00000000
Si       0.86667687      -3.30097302      -1.44703759       0.00000000
Si      -2.10794229       2.60332838       1.64343948       0.00000000
