10
Lattice="16.28999089631971 0.0 0.0 0.0 16.28999089631971 0.0 0.0 0.0 34.474598006748145" Properties=species:S:1:pos:R:3:initial_magmoms:R:1 pbc="T T T"
Si       0.45558243      -1.24028802      -1.95502107       0.00000000
Si       1.78119747       1.05340914       1.22262993       0.00000000
Si      -1.00696635      -1.79590734       1.33385884       0.00000000
Si      -2.00207358       1.63396845      -0.31444298       0.00000000
Si       0.38160954       2.28488136       2.71620480       0.00000000
Si      -2.33491086      -0.45867753       2.73650690       0.00000000
Si      -0.57775743      -3.40465887      -1.48516651       0.00000000
Si       2.78717013      -1.54686582      -2.08243926       0.00000000
Si      -0.52271352      -0.02288745      -3.78872596       0.00000000
Si      -2.52548757      -2.97618300      -0.16116884       0.00000000
