10
Lattice="16.28999089631971 0.0 0.0 0.0 16.28999089631971 0.0 0.0 0.0 34.474598006748145" Properties=species:S:1:pos:R:3:initial_magmoms:R:1 pbc="T T T"
Si       1.34428338       1.36849032       1.39177822       0.00000000
Si      -1.37046141      -1.35035955       1.39450172       0.00000000
Si      -1.31864292       1.39561317      -1.43187565       0.00000000
Si       1.25709930      -1.51997103      -1.62086550       0.00000000
Si       2.67548589      -2.69853624       0.02915518       0.00000000
Si      -2.71326240      -2.69983944       0.01965743       0.00000000
Si       2.69993718       2.72381832       0.00589516       0.00000000
Si      -2.72189610       2.72043000       0.01610654       0.00000000
Si       2.70321147       0.01110978       2.75249137       0.00000000
Si      -0.01268991      -2.70484047       2.75297401       0.00000000
