10
Lattice="16.28999089631971 0.0 0.0 0.0 16.28999089631971 0.0 0.0 0.0 34.474598006748145" Properties=species:S:1:pos:R:3:initial_magmoms:R:1 pbc="T T T"
Si       1.30096827       0.46213101      -2.02041942       0.00000000
Si      -0.78464043       2.32841115      -0.10307911       0.00000000
Si       1.47641157      -0.84751983       1.87603972       0.00000000
Si      -2.24156916      -1.12523175       0.38118584       0.00000000
Si       0.92442492       2.80144017       1.53698186       0.00000000
Si      -2.26510821      -1.35322659      -2.04558589       0.00000000
Si      -0.49681242      -0.49539519      -3.40381686       0.00000000
Si       0.79739550       1.04804973       3.21761945       0.00000000
Si       2.96763075      -1.32598971      -1.84066877       0.00000000
Si      -2.68152948       0.54535662       2.56432546       0.00000000
