10
Lattice="16.28999089631971 0.0 0.0 0.0 16.28999089631971 0.0 0.0 0.0 34.474598006748145" Properties=species:S:1:pos:R:3:initial_magmoms:R:1 pbc="T T T"
Si      -0.17151741       1.39865940      -1.90654976       0.00000000
Si      -1.37738466       1.03413807       1.65909096       0.00000000
Si       2.22630543      -0.22418298       0.87548291       0.00000000
Si      -1.26371304      -2.04393888      -0.23839198       0.00000000
Si      -0.96360237      -2.69842221       1.95677928       0.00000000
Si      -1.97340318      -0.86674203       2.93399678       0.00000000
Si      -0.20660607       2.91698514       2.45355851       0.00000000
Si      -1.55888784       0.40378023      -3.49400246       0.00000000
Si       3.18612852       2.19294351       0.50660450       0.00000000
Si       2.39063895       0.12261483       3.20386408       0.00000000
