10
Lattice="16.28999089631971 0.0 0.0 0.0 16.28999089631971 0.0 0.0 0.0 34.474598006748145" Properties=species:S:1:pos:R:3:initial_magmoms:R:1 pbc="T T T"
Si      -1.38737043      -0.99487917      -1.58745270       0.00000000
Si       1.75365108       0.60810570      -1.43235140       0.00000000
Si       0.17151741      -1.39865940       1.90654976       0.00000000
Si      -0.67463406       2.26628109       0.25628430       0.00000000
Si      -1.26034101       0.75851127      -3.26809029       0.00000000
Si       2.06345430       2.89321803      -0.90726850       0.00000000
Si      -3.42137241      -1.33685514      -0.41579836       0.00000000
Si       0.18873594       2.86594857       2.37809357       0.00000000
Si      -1.20586725      -0.36452133       3.56564072       0.00000000
Si       2.34965331       2.78381439       1.44090110       0.00000000
