10
Lattice="16.28999089631971 0.0 0.0 0.0 16.28999089631971 0.0 0.0 0.0 34.474598006748145" Properties=species:S:1:pos:R:3:initial_magmoms:R:1 pbc="T T T"
Si       0.30011067      -0.65448333       2.19517125       0.00000000
Si       0.19041381      -2.02395105      -1.17006851       0.00000000
Si      -2.25886914       0.19290618      -0.67959813       0.00000000
Si       1.26371304       2.04393888       0.23839198       0.00000000
Si      -2.10841470      -1.65437982      -2.11015685       0.00000000
Si      -0.70969014       1.17719685       3.17238876       0.00000000
Si      -0.11367162       3.07807695       1.89748293       0.00000000
Si      -2.32917678       2.10574314      -2.08395614       0.00000000
Si       2.57430870      -1.17449271       2.62117410       0.00000000
Si       2.33145738      -2.28718116      -2.12511883       0.00000000
