10
Lattice="16.28999089631971 0.0 0.0 0.0 16.28999089631971 0.0 0.0 0.0 34.474598006748145" Properties=species:S:1:pos:R:3:initial_magmoms:R:1 pbc="T T T"
Si      -0.74974725       1.58975739       1.58607372       0.00000000
Si       1.39892004       1.49941305      -1.42642176       0.00000000
Si      -2.24696115      -0.30066453      -1.14948716       0.00000000
Si       1.77517017      -1.58540796       1.33571905       0.00000000
Si       0.29291049      -2.70319518      -2.36464847       0.00000000
Si      -1.88579556       0.06362874       3.13050696       0.00000000
Si      -2.88435627      -1.78522110       1.86642376       0.00000000
Si       0.56540961       1.44749682      -3.61824898       0.00000000
Si      -2.07801756      -2.47347360      -2.29001093       0.00000000
Si       1.00611927      -0.84243735      -3.80399822       0.00000000
