10
Lattice="16.28999089631971 0.0 0.0 0.0 16.28999089631971 0.0 0.0 0.0 34.474598006748145" Properties=species:S:1:pos:R:3:initial_magmoms:R:1 pbc="T T T"
Si       1.28919060       1.49765373      -1.33737869       0.00000000
Si       1.31864292      -1.39561317       1.43187565       0.00000000
Si      -1.53402930      -1.08802539      -1.48513690       0.00000000
Si      -1.40325318       1.32481683       1.44798219       0.00000000
Si      -2.67007761      -2.61415404       0.05929634       0.00000000
Si      -2.37459330       1.09113678      -2.75911191       0.00000000
Si       2.66292630      -0.02712285       2.82365387       0.00000000
Si      -2.80380222       2.69988831       0.05991344       0.00000000
Si       2.57574222      -2.91558420      -0.18898985       0.00000000
Si      -0.05400135       2.68970706       2.82513628       0.00000000
