10
Lattice="16.28999089631971 0.0 0.0 0.0 16.28999089631971 0.0 0.0 0.0 34.474598006748145" Properties=species:S:1:pos:R:3:initial_magmoms:R:1 pbc="T T T"
Si       0.86337000       0.59966748       2.12180927       0.00000000
Si       0.67463406      -2.26628109      -0.25628430       0.00000000
Si      -2.45421882       0.37958958      -0.94232919       0.00000000
Si       2.73808836       0.62693694      -1.16355281       0.00000000
Si      -0.96604587       0.74634264      -2.83522700       0.00000000
Si       1.01263527       1.89351702      -2.23871270       0.00000000
Si      -2.07482472       2.41323318       0.16975302       0.00000000
Si       3.02428737       0.51753330       1.18461680       0.00000000
Si       2.42828514      -1.65817539      -1.68863570       0.00000000
Si      -0.34955082       3.44825091      -1.06991975       0.00000000
