10
Lattice="16.28999089631971 0.0 0.0 0.0 16.28999089631971 0.0 0.0 0.0 34.474598006748145" Properties=species:S:1:pos:R:3:initial_magmoms:R:1 pbc="T T T"
Si       2.19833550      -0.51883650       0.54414736       0.00000000
Si      -1.17077859      -1.88284707      -0.79446756       0.00000000
Si      -0.72537741       1.34628705       1.83894503       0.00000000
Si       0.22382460       1.34762283      -1.98201470       0.00000000
Si      -1.49957595      -1.28493891       2.86670232       0.00000000
Si      -3.19371966      -0.79459362      -1.42138847       0.00000000
Si       2.29995252       0.04271238       2.85573940       0.00000000
Si      -3.32291565       1.43837442      -0.64391690       0.00000000
Si      -0.13085757       3.54569769       1.03279058       0.00000000
Si      -3.04256475       1.34698752       1.70763122       0.00000000
