10
Lattice="16.28999089631971 0.0 0.0 0.0 16.28999089631971 0.0 0.0 0.0 34.474598006748145" Properties=species:S:1:pos:R:3:initial_magmoms:R:1 pbc="T T T"
Si       1.34547255       1.35255870      -1.38805152       0.00000000
Si      -1.35909099      -1.37471310      -1.38453510       0.00000000
Si       1.85868900      -0.89974557       1.27625033       0.00000000
Si      -1.48791231       1.32862869       1.53574078       0.00000000
Si       2.69128719       2.71329728       0.00954947       0.00000000
Si      -2.72096757       2.70582180      -0.00499882       0.00000000
Si       2.72575683      -2.71358820      -0.00913577       0.00000000
Si      -2.69843850      -2.74317084      -0.01882314       0.00000000
Si      -0.00241092       2.70214352      -2.74731673       0.00000000
Si       2.71155195      -0.01286910      -2.74304187       0.00000000
