10
Lattice="16.28999089631971 0.0 0.0 0.0 16.28999089631971 0.0 0.0 0.0 34.474598006748145" Properties=species:S:1:pos:R:3:initial_magmoms:R:1 pbc="T T T"
Si      -0.24118974      -2.30674545      -0.59379081       0.00000000
Si      -1.80004500       1.50678332      -0.96597878       0.00000000
Si       2.54570346       0.05476698      -0.49529683       0.00000000
Si      -1.41938028       0.99882691       2.44200951       0.00000000
Si       2.21692239       0.29761636       2.06402981       0.00000000
Si       2.06674488      -0.21321981      -2.84160480       0.00000000
Si       0.29004345      -2.06609328      -2.88273302       0.00000000
Si       2.96191296      -1.81123623       1.40356509       0.00000000
Si       1.20692610      -3.38893902       1.06257665       0.00000000
Si       0.55177488       0.56926775       3.72170731       0.00000000
