10
Lattice="16.28999089631971 0.0 0.0 0.0 16.28999089631971 0.0 0.0 0.0 34.474598006748145" Properties=species:S:1:pos:R:3:initial_magmoms:R:1 pbc="T T T"
Si       1.22217354       1.62062694       1.10484253       0.00000000
Si      -1.72527390      -1.03501773       1.23967276       0.00000000
Si       1.36218609      -1.55473389      -1.16879295       0.00000000
Si      -1.24269894       1.15378812      -1.67312213       0.00000000
Si      -0.61649505      -2.70190827      -1.76530725       0.00000000
Si       1.78080651       2.89873775      -0.86207228       0.00000000
Si      -1.65840345      -0.94646529      -3.04335026       0.00000000
Si       0.34955082      -3.44825091       1.06991975       0.00000000
Si      -3.38763582       0.57607956       1.29607324       0.00000000
Si      -2.10466800      -3.06866133       0.12759056       0.00000000
