10
Lattice="16.28999089631971 0.0 0.0 0.0 16.28999089631971 0.0 0.0 0.0 34.474598006748145" Properties=species:S:1:pos:R:3:initial_magmoms:R:1 pbc="T T T"
Si      -0.37662480      -0.16816167      -2.30986831       0.00000000
Si      -0.98517033      -1.89097578       0.98028574       0.00000000
Si       2.34012366       0.25839198       0.33199056       0.00000000
Si      -1.18436445       1.79106921       1.07588386       0.00000000
Si       2.56156992      -1.98172737      -0.35781205       0.00000000
Si       0.63654804       1.98790128       2.58869901       0.00000000
Si      -2.03898672       1.44293562      -2.25346783       0.00000000
Si       2.20688775       0.21634749       2.65699323       0.00000000
Si      -1.24330167       3.13281135      -0.86283072       0.00000000
Si      -3.24908937      -1.19363346       0.76806000       0.00000000
