10
Lattice="16.28999089631971 0.0 0.0 0.0 16.28999089631971 0.0 0.0 0.0 34.474598006748145" Properties=species:S:1:pos:R:3:initial_magmoms:R:1 pbc="T T T"
Si       2.33158770      -0.30657780      -0.12741819       0.00000000
Si      -0.45558243       1.24028802       1.95502107       0.00000000
Si      -0.97829595       1.21740057      -1.83370489       0.00000000
Si      -1.03333986      -2.16437085       0.46985456       0.00000000
Si      -2.47826286      -2.11996431      -1.42073345       0.00000000
Si      -1.46254878      -0.55561932       3.28887991       0.00000000
Si       2.63044404      -1.75785390       1.89158778       0.00000000
Si      -1.78228890      -0.59833170      -3.19383197       0.00000000
Si      -3.05834976       2.25162009      -0.80205197       0.00000000
Si      -2.98107000      -1.73589498       1.79385224       0.00000000
