10
Lattice="16.28999089631971 0.0 0.0 0.0 16.28999089631971 0.0 0.0 0.0 34.474598006748145" Properties=species:S:1:pos:R:3:initial_magmoms:R:1 pbc="T T T"
Si       1.35688858       1.35759231      -1.35685199       0.00000000
Si      -1.35818490      -1.35764118      -1.35654172       0.00000000
Si       1.35618811      -1.35723393       1.35964443       0.00000000
Si      -1.35771678       1.35617508       1.36502247       0.00000000
Si       2.69543788       0.02451645       2.70336159       0.00000000
Si       2.71368268      -2.71464379      -0.00006895       0.00000000
Si       2.71418767       0.00014661      -2.71415214       0.00000000
Si      -0.00076074      -2.71475945      -2.71411767       0.00000000
Si      -2.71583037       0.00053757      -2.71418662       0.00000000
Si      -0.00118428       2.71546155      -2.71456584       0.00000000
