10
Lattice="16.28999089631971 0.0 0.0 0.0 16.28999089631971 0.0 0.0 0.0 34.474598006748145" Properties=species:S:1:pos:R:3:initial_magmoms:R:1 pbc="T T T"
Si      -1.40587587       0.86808270       1.65688458       0.00000000
Si       0.04109967       1.78173015      -1.61203310       0.00000000
Si      -1.16308971      -1.91314225      -0.88913485       0.00000000
Si       2.26494531      -0.13392156       0.90747535       0.00000000
Si       0.56070180      -3.53896570      -0.87830982       0.00000000
Si       1.76984334       1.09060410      -3.15211768       0.00000000
Si      -3.60942417       0.20313141       1.10487701       0.00000000
Si      -1.32928029       3.26485320       1.38812046       0.00000000
Si      -2.61340470      -1.07288776      -2.61000432       0.00000000
Si       3.48821095       1.81623237       0.26373082       0.00000000
