10
Lattice="16.28999089631971 0.0 0.0 0.0 16.28999089631971 0.0 0.0 0.0 34.474598006748145" Properties=species:S:1:pos:R:3:initial_magmoms:R:1 pbc="T T T"
Si       1.12005220      -1.88597475      -0.86520947       0.00000000
Si       0.97437562       2.14653330      -0.27662433       0.00000000
Si       0.21292659      -0.23530905       2.35920148       0.00000000
Si      -1.90099413       0.21698280      -1.44083215       0.00000000
Si      -0.12776247       0.78767037      -3.11388533       0.00000000
Si      -0.24514821       3.09591450       1.52839768       0.00000000
Si       1.02562233      -1.27516491      -3.16294271       0.00000000
Si       2.42881361      -1.13992533       2.35778802       0.00000000
Si      -3.69743904      -0.43735392       0.25918017       0.00000000
Si       3.18287771      -2.07146898       0.33933366       0.00000000
