10
Lattice="16.28999089631971 0.0 0.0 0.0 16.28999089631971 0.0 0.0 0.0 34.474598006748145" Properties=species:S:1:pos:R:3:initial_magmoms:R:1 pbc="T T T"
Si       1.35712642       1.35676152      -1.35712778       0.00000000
Si      -1.35757602      -1.35816246      -1.35664514       0.00000000
Si      -1.35764118       1.35767376       1.35771385       0.00000000
Si       1.35764547      -1.35817875       1.35764490       0.00000000
Si      -2.71365336       0.00346977      -2.71553113       0.00000000
Si      -2.71489140       2.71430496      -0.00031027       0.00000000
Si       2.71464609       2.71492398      -0.00037922       0.00000000
Si      -0.00068418      -2.71648293      -2.71322133       0.00000000
Si       2.71583037      -0.00053757       2.71418662       0.00000000
Si      -2.71518462      -2.71504941       0.00000000       0.00000000
