10
Lattice="16.28999089631971 0.0 0.0 0.0 16.28999089631971 0.0 0.0 0.0 34.474598006748145" Properties=species:S:1:pos:R:3:initial_magmoms:R:1 pbc="T T T"
Si       1.20265812      -1.33203330       1.47416911       0.00000000
Si       1.37098269       1.34140005      -1.35612802       0.00000000
Si      -1.34267067      -1.37290491      -1.35316320       0.00000000
Si      -1.28909286       1.46051253       1.40573699       0.00000000
Si       1.96962390       0.67126203       2.77189713       0.00000000
Si      -2.21741109      -0.31718259       2.76451956       0.00000000
Si      -0.55074861      -2.10530331       2.94427021       0.00000000
Si       0.42697719       2.60296281       2.66671507       0.00000000
Si       0.01661580       2.69860140      -2.71101495       0.00000000
Si      -2.70124038      -0.01713708      -2.71266973       0.00000000
