10
Lattice="16.28999089631971 0.0 0.0 0.0 16.28999089631971 0.0 0.0 0.0 34.474598006748145" Properties=species:S:1:pos:R:3:initial_magmoms:R:1 pbc="T T T"
Si       1.09248885       2.09232018      -0.50284677       0.00000000
Si      -2.23173000       0.25500366       1.15817477       0.00000000
Si       0.93768498      -1.21720509       2.08199109       0.00000000
Si      -0.74051082      -0.22346622      -2.55853372       0.00000000
Si      -0.34474527       3.82784049       0.34898655       0.00000000
Si       2.60765433       0.19329714       2.90786502       0.00000000
Si      -3.70814157       1.10252349      -0.71786496       0.00000000
Si      -2.40717330       1.56465450      -2.73828438       0.00000000
Si      -3.05952264      -1.85103270       2.05682462       0.00000000
Si       1.77986169       2.55309912      -2.73090681       0.00000000
