10
Lattice="16.28999089631971 0.0 0.0 0.0 16.28999089631971 0.0 0.0 0.0 34.474598006748145" Properties=species:S:1:pos:R:3:initial_magmoms:R:1 pbc="T T T"
Si       1.05889887       2.04802767       0.36518962       0.00000000
Si      -2.19955073       0.31530924      -0.84390416       0.00000000
Si       0.22540473      -0.91523736       2.18569074       0.00000000
Si      -0.62237574      -3.08240846      -1.36757359       0.00000000
Si      -0.10083510       3.41146809      -1.07505647       0.00000000
Si      -1.95059718       2.33217414      -1.97184468       0.00000000
Si       1.32278058      -2.94815606       1.77616676       0.00000000
Si      -1.92644237      -1.66676022       2.72204683       0.00000000
Si       0.55092780       2.68144803       2.56180881       0.00000000
Si      -2.50234925      -1.94774643      -2.27167043       0.00000000
