10
Lattice="16.28999089631971 0.0 0.0 0.0 16.28999089631971 0.0 0.0 0.0 34.474598006748145" Properties=species:S:1:pos:R:3:initial_magmoms:R:1 pbc="T T T"
Si       1.32880788       1.40939451      -1.31019546       0.00000000
Si       1.49721390      -1.14593634       1.43546101       0.00000000
Si      -1.23351138       1.56701655       1.42468769       0.00000000
Si      -0.70286463      -1.90658160      -1.43295957       0.00000000
Si      -0.37049976       1.67951529      -2.83821392       0.00000000
Si       0.12830004      -2.50545087       2.80943309       0.00000000
Si       2.93693780      -2.38744611      -0.10335146       0.00000000
Si      -2.67634926      -2.67677280      -0.20207297       0.00000000
Si      -2.58916518       0.21168855       2.81057075       0.00000000
Si       1.19907432      -3.54931407      -1.14091781       0.00000000
