10
Lattice="16.28999089631971 0.0 0.0 0.0 16.28999089631971 0.0 0.0 0.0 34.474598006748145" Properties=species:S:1:pos:R:3:initial_magmoms:R:1 pbc="T T T"
Si      -1.11514824      -1.58654826       1.25108386       0.00000000
Si       1.18205127      -1.48115196      -1.41428670       0.00000000
Si      -1.51378083       1.23817032      -1.39115423       0.00000000
Si       1.89420120       0.80021367       1.30493321       0.00000000
Si      -0.70582941      -0.43973226       3.34472737       0.00000000
Si       2.44200132      -2.85278625       0.01982290       0.00000000
Si       2.54221936      -0.13274721      -2.76934601       0.00000000
Si      -0.16503399       2.57582367      -2.77358638       0.00000000
Si       0.42749847      -3.51824904       1.35626592       0.00000000
Si       2.69408795       2.68169238      -0.01089398       0.00000000
