10
Lattice="16.28999089631971 0.0 0.0 0.0 16.28999089631971 0.0 0.0 0.0 34.474598006748145" Properties=species:S:1:pos:R:3:initial_magmoms:R:1 pbc="T T T"
Si       1.54320776      -1.21151988       1.30069284       0.00000000
Si      -2.11950819      -0.49679613       0.89568503       0.00000000
Si       0.67033350       2.26229004      -0.47461206       0.00000000
Si       0.21193290      -1.09385721      -2.14959581       0.00000000
Si       2.55253453      -0.61313931      -1.95995094       0.00000000
Si       2.53812765       0.49138785       2.50261589       0.00000000
Si       2.74603692       1.76065578      -1.57673110       0.00000000
Si      -2.42931141      -2.78190846       0.37060214       0.00000000
Si      -1.01620278       2.84275161      -2.19089640       0.00000000
Si      -2.01305304      -0.90385065      -3.02669902       0.00000000
