10
Lattice="16.28999089631971 0.0 0.0 0.0 16.28999089631971 0.0 0.0 0.0 34.474598006748145" Properties=species:S:1:pos:R:3:initial_magmoms:R:1 pbc="T T T"
Si      -2.16091737       0.08213418       0.93719247       0.00000000
Si      -0.28619901       0.10940364      -2.34816961       0.00000000
Si       1.02244185       2.08526661       0.58200049       0.00000000
Si       1.00799262      -1.98953028       0.97225316       0.00000000
Si      -3.02428737      -0.51753330      -1.18461680       0.00000000
Si       2.63204046      -0.75015450       2.27518684       0.00000000
Si       2.53570140      -2.47972896      -0.80632682       0.00000000
Si      -0.59600223      -2.17570869      -2.87325250       0.00000000
Si       2.03906817       1.52476029       2.68212522       0.00000000
Si      -2.38236363       2.32225353       1.62699509       0.00000000
