10
Lattice="16.28999089631971 0.0 0.0 0.0 16.28999089631971 0.0 0.0 0.0 34.474598006748145" Properties=species:S:1:pos:R:3:initial_magmoms:R:1 pbc="T T T"
Si       0.69495488      -0.91753425       2.04048365       0.00000000
Si      -0.59297229       2.27491479       0.40693838       0.00000000
Si      -1.62404784      -1.23937578      -1.30293369       0.00000000
Si       2.08118501       0.77105457      -0.99055918       0.00000000
Si       1.79162211       2.61231327       0.44810108       0.00000000
Si      -2.81844693      -1.03417065       1.18816768       0.00000000
Si      -0.09633906      -1.72957446      -3.08151366       0.00000000
Si      -2.63204046       0.75015450      -2.27518684       0.00000000
Si      -0.04728987      -3.11748246       1.84246145       0.00000000
Si      -1.60959861       2.83542111      -1.69318635       0.00000000
