10
Lattice="16.28999089631971 0.0 0.0 0.0 16.28999089631971 0.0 0.0 0.0 34.474598006748145" Properties=species:S:1:pos:R:3:initial_magmoms:R:1 pbc="T T T"
Si       0.39890952      -2.27553381       0.20615821       0.00000000
Si      -2.19833550       0.51883650      -0.54414736       0.00000000
Si       0.10161702       0.56154888       2.31159204       0.00000000
Si       1.19439909      -0.20520513      -2.49110137       0.00000000
Si       2.81844693       1.03417065      -1.18816768       0.00000000
Si       0.23457600      -2.62233162      -2.12222296       0.00000000
Si       2.77115706      -2.08331181       0.65429376       0.00000000
Si       3.51340181       0.11663640       0.85231596       0.00000000
Si      -2.92371291       1.86512355       1.29479768       0.00000000
Si      -1.97451090       1.86645933      -2.52616206       0.00000000
