10
Lattice="16.28999089631971 0.0 0.0 0.0 16.28999089631971 0.0 0.0 0.0 34.474598006748145" Properties=species:S:1:pos:R:3:initial_magmoms:R:1 pbc="T T T"
Si      -1.69930764       0.27012078      -1.52801846       0.00000000
Si      -1.32880788      -1.40939451       1.31019546       0.00000000
Si       1.39155763       1.46228814       1.25036476       0.00000000
Si      -0.24426855      -1.29106395      -2.83274483       0.00000000
Si       2.32335215      -1.60485822      -2.41832545       0.00000000
Si      -2.56231926       0.15762204       2.73488315       0.00000000
Si       0.16840602      -2.55533085       2.74565647       0.00000000
Si      -2.03167251      -3.31597611      -0.12276411       0.00000000
Si       2.86707977       0.15056847       2.73102544       0.00000000
Si      -1.61528382       2.26215972      -2.83629571       0.00000000
