10
Lattice="16.28999089631971 0.0 0.0 0.0 16.28999089631971 0.0 0.0 0.0 34.474598006748145" Properties=species:S:1:pos:R:3:initial_magmoms:R:1 pbc="T T T"
Si      -0.74499057       2.10885259       0.66046472       0.00000000
Si      -1.75498686      -1.57770279      -0.34098844       0.00000000
Si       1.68653628      -0.58046157       1.71628435       0.00000000
Si      -0.41620950       1.86600321      -1.89886192       0.00000000
Si       1.01620278      -2.84275161       2.19089640       0.00000000
Si      -2.96191296       1.81123623      -1.40356509       0.00000000
Si      -3.20310270      -0.49550922      -1.99735590       0.00000000
Si       3.76223970      -1.08209583       0.61416531       0.00000000
Si      -0.99685026      -3.74660226      -0.83580262       0.00000000
Si       1.84591764       2.81793447      -2.20061824       0.00000000
