10
Lattice="16.28999089631971 0.0 0.0 0.0 16.28999089631971 0.0 0.0 0.0 34.474598006748145" Properties=species:S:1:pos:R:3:initial_magmoms:R:1 pbc="T T T"
Si       0.75813660      -2.16889947      -0.49481418       0.00000000
Si       1.75498686       1.57770279       0.34098844       0.00000000
Si      -1.44811584       1.08219357      -1.65636746       0.00000000
Si      -1.07377164      -0.49526487       2.35240998       0.00000000
Si      -1.20692610       3.38893902      -1.06257665       0.00000000
Si       2.98312254      -2.35890603       0.38228903       0.00000000
Si      -3.05245278      -1.64243925       1.75589568       0.00000000
Si       0.65168145      -1.76184495       3.42756987       0.00000000
Si       1.00999629       3.68655538       1.00145316       0.00000000
Si       2.77118964      -1.26504882       2.53188484       0.00000000
