10
Lattice="16.28999089631971 0.0 0.0 0.0 16.28999089631971 0.0 0.0 0.0 34.474598006748145" Properties=species:S:1:pos:R:3:initial_magmoms:R:1 pbc="T T T"
Si       1.53634248      -1.62447138      -1.06381774       0.00000000
Si      -0.88104465       1.17595881      -2.00104468       0.00000000
Si      -1.59626687      -1.01602359       1.62412477       0.00000000
Si       1.05982740       1.52451594       1.66982777       0.00000000
Si       0.66495780       3.17324313      -1.65660878       0.00000000
Si      -0.20764863      -2.87319762      -2.26019038       0.00000000
Si       2.18237130       3.12984657       0.27927887       0.00000000
Si       2.37902418       0.22556763       3.17357265       0.00000000
Si      -3.33413036      -2.17789155       0.58655842       0.00000000
Si      -0.34239951      -2.46870063       3.16322337       0.00000000
