10
Lattice="16.28999089631971 0.0 0.0 0.0 16.28999089631971 0.0 0.0 0.0 34.474598006748145" Properties=species:S:1:pos:R:3:initial_magmoms:R:1 pbc="T T T"
Si       1.85955237       0.18321363      -1.35405954       0.00000000
Si      -1.92031407      -0.78898986      -1.04168504       0.00000000
Si      -0.59678415       2.10486348       0.81084300       0.00000000
Si       0.52571088      -1.50643404       1.73552118       0.00000000
Si      -2.70841612       1.44350577       1.57331811       0.00000000
Si       2.92778541      -1.71896967       1.54566947       0.00000000
Si      -3.70333602      -0.25940196       0.37139505       0.00000000
Si       3.73163175       0.20797443       0.18761087       0.00000000
Si      -1.39872456      -2.81456991      -2.05623855       0.00000000
Si       2.10900114      -1.86670368      -2.52843738       0.00000000
