10
Lattice="16.28999089631971 0.0 0.0 0.0 16.28999089631971 0.0 0.0 0.0 34.474598006748145" Properties=species:S:1:pos:R:3:initial_magmoms:R:1 pbc="T T T"
Si       1.35688370      -1.35695301       1.35757595       0.00000000
Si       1.35861043       1.35591281      -1.35743806       0.00000000
Si      -1.35742416       1.35711827       1.35757595       0.00000000
Si      -1.35920093      -1.35719056      -1.35754148       0.00000000
Si       2.71644709      -0.00157361      -2.71170445       0.00000000
Si       2.71444342       0.00011566       2.71404872       0.00000000
Si       0.00076074       2.71475945       2.71411767       0.00000000
Si      -2.71575381      -0.00118591      -2.71329028       0.00000000
Si      -2.71508592      -0.00161760       2.71439347       0.00000000
Si       2.71494842       2.71490606      -0.00003447       0.00000000
