10
Lattice="16.28999089631971 0.0 0.0 0.0 16.28999089631971 0.0 0.0 0.0 34.474598006748145" Properties=species:S:1:pos:R:3:initial_magmoms:R:1 pbc="T T T"
Si      -0.74224475      -2.19994821      -0.19802220       0.00000000
Si      -0.69495488       0.91753425      -2.04048365       0.00000000
Si      -1.12893677       0.96049098       1.82188010       0.00000000
Si       2.33461764       0.29986632       0.33023236       0.00000000
Si      -3.51340181      -0.11663640      -0.85231596       0.00000000
Si       2.41810389       2.75577930       0.27338371       0.00000000
Si       1.38623013       1.68858882      -3.03104283       0.00000000
Si      -3.41178479       0.44491248       1.45927607       0.00000000
Si       0.47727908      -3.14932941      -2.00304421       0.00000000
Si       0.10246736      -3.43023417       1.62651244       0.00000000
