10
Lattice="16.28999089631971 0.0 0.0 0.0 16.28999089631971 0.0 0.0 0.0 34.474598006748145" Properties=species:S:1:pos:R:3:initial_magmoms:R:1 pbc="T T T"
Si      -1.80340304      -0.70084467       1.41180084       0.00000000
Si       1.68730680      -1.75531266      -0.16896865       0.00000000
Si      -1.76018567      -0.85711464      -1.58111792       0.00000000
Si       0.95447508       2.04839649       1.27928731       0.00000000
Si      -1.38747047       1.10093100      -2.77269859       0.00000000
Si       1.03947630       1.82108095      -2.64128135       0.00000000
Si      -0.53667635      -2.13920280       2.71354171       0.00000000
Si       2.19796572       0.60530861       2.69363262       0.00000000
Si      -1.31590850       3.14360252      -1.57049974       0.00000000
Si       0.69852986      -3.52390167       1.19940273       0.00000000
