10
Lattice="16.28999089631971 0.0 0.0 0.0 16.28999089631971 0.0 0.0 0.0 34.474598006748145" Properties=species:S:1:pos:R:3:initial_magmoms:R:1 pbc="T T T"
Si      -0.11722726      -1.58762340       1.72180029       0.00000000
Si      -0.92267002       2.16564214       0.35367510       0.00000000
Si       2.24748520       0.80399295      -0.59061914       0.00000000
Si      -0.65061073      -1.68070446      -1.67298423       0.00000000
Si       3.05442664      -1.29596724      -1.30424372       0.00000000
Si      -1.66977829       2.70141047      -1.86573181       0.00000000
Si       1.09379971      -0.67926042       3.49858758       0.00000000
Si       1.42509269      -2.18233872      -2.77510327       0.00000000
Si       0.70126772       3.50208026       1.47179036       0.00000000
Si       1.21718342      -3.45160665       1.30424372       0.00000000
