10
Lattice="16.28999089631971 0.0 0.0 0.0 16.28999089631971 0.0 0.0 0.0 34.474598006748145" Properties=species:S:1:pos:R:3:initial_magmoms:R:1 pbc="T T T"
Si      -0.13341510       0.61397010       2.24567657       0.00000000
Si       1.20306537      -1.83822876      -0.88813509       0.00000000
Si      -2.31954450      -0.48195594       0.22687746       0.00000000
Si       1.52733411       1.72810577      -0.72579412       0.00000000
Si       1.99448244      -0.25793586       2.69643219       0.00000000
Si      -0.55482111       2.90308067       1.70235660       0.00000000
Si      -2.14393505      -2.48973102       1.49706026       0.00000000
Si       0.53714646       2.41798890      -2.74579984       0.00000000
Si      -0.08452881      -2.59294446      -2.72994152       0.00000000
Si       2.96091927      -0.84509262      -2.18469097       0.00000000
