10
Lattice="16.28999089631971 0.0 0.0 0.0 16.28999089631971 0.0 0.0 0.0 34.433804113860816" Properties=species:S:1:pos:R:3:initial_magmoms:R:1 pbc="T T T"
Si       1.07281053       1.70469963       1.30739029       0.00000000
Si      -1.80216759      -1.16880261       1.18717837       0.00000000
Si       1.21427289      -2.12880652      -0.37319175       0.00000000
Si      -0.05590728       1.41592680      -2.08128156       0.00000000
Si      -1.49998972      -0.43549686      -2.67588482       0.00000000
Si       0.39672666      -2.02136094      -2.65081700       0.00000000
Si       2.36141469       0.30327093       2.64927983       0.00000000
Si      -0.39832308      -2.41351730       2.66279166       0.00000000
Si       2.45048841       2.88647397      -0.23821116       0.00000000
Si       1.95890508       0.97609680      -3.30922613       0.00000000
