10
Lattice="16.28999089631971 0.0 0.0 0.0 16.28999089631971 0.0 0.0 0.0 34.433804113860816" Properties=species:S:1:pos:R:3:initial_magmoms:R:1 pbc="T T T"
Si       1.35523026      -1.35525476       1.36220205       0.00000000
Si      -1.36083402       1.36171531       1.36171998       0.00000000
Si      -1.37380086      -1.36507498      -1.36298714       0.00000000
Si       1.38593691       1.35171325      -1.37649898       0.00000000
Si       2.70850572      -2.70575827       0.00685233       0.00000000
Si      -2.71630700      -2.70771307       0.00440753       0.00000000
Si       2.71440270       2.71003861       0.00327121       0.00000000
Si      -0.00330687      -2.71085704       2.71937677       0.00000000
Si       2.71248048       0.00399268       2.71844705       0.00000000
Si      -2.71725834       2.71785781      -0.00220376       0.00000000
