10
Lattice="16.28999089631971 0.0 0.0 0.0 16.28999089631971 0.0 0.0 0.0 34.433804113860816" Properties=species:S:1:pos:R:3:initial_magmoms:R:1 pbc="T T T"
Si       0.87653232       2.16743337      -0.78402372       0.00000000
Si      -1.02882753       0.91399932       2.05614689       0.00000000
Si       1.42017849      -1.94411376       0.60376266       0.00000000
Si      -1.23359283      -0.81601497      -2.02890974       0.00000000
Si       2.66595624       2.50220916       0.77565630       0.00000000
Si      -0.82973115       3.24682506       1.92299130       0.00000000
Si      -0.88599681       3.78853272      -0.34750615       0.00000000
Si      -3.52036674      -0.39314286      -1.72155343       0.00000000
Si      -1.74879666      -3.22322248      -1.54631971       0.00000000
Si       3.67779330      -1.28238138       0.94551836       0.00000000
