10
Lattice="16.28999089631971 0.0 0.0 0.0 16.28999089631971 0.0 0.0 0.0 34.433804113860816" Properties=species:S:1:pos:R:3:initial_magmoms:R:1 pbc="T T T"
Si      -1.15927785      -1.07069120       1.76494005       0.00000000
Si       1.31201289      -1.82743501      -0.78877559       0.00000000
Si       1.64848284       1.45013580       0.93250237       0.00000000
Si      -1.26433206       1.27208610      -1.60599352       0.00000000
Si       2.02445604      -0.86100795      -2.79206657       0.00000000
Si      -0.38726217      -3.39272549      -1.10184791       0.00000000
Si       2.94705648      -2.07083856       0.88412285       0.00000000
Si       2.12612193       2.96908056      -0.79996658       0.00000000
Si       0.39368043      -1.35831559       3.48490953       0.00000000
Si      -1.61256339      -3.30446627       1.00223086       0.00000000
