10
Lattice="16.28999089631971 0.0 0.0 0.0 16.28999089631971 0.0 0.0 0.0 34.433804113860816" Properties=species:S:1:pos:R:3:initial_magmoms:R:1 pbc="T T T"
Si       1.34566803       1.36492281       1.38089617       0.00000000
Si      -1.47659076       1.29481065      -1.31687337       0.00000000
Si      -1.37135736      -1.35870003       1.38024193       0.00000000
Si       1.54748484      -1.24370892      -1.50039532       0.00000000
Si       2.68771968      -2.68231140       0.03780145       0.00000000
Si       2.68281639       2.71112841      -0.00475875       0.00000000
Si      -2.69982315      -2.71702539       0.00047174       0.00000000
Si       2.69762400       0.00744453       2.73813976       0.00000000
Si      -0.01539405      -2.70637173       2.74055012       0.00000000
Si      -0.01607823       2.72176578       2.73882843       0.00000000
