10
Lattice="16.28999089631971 0.0 0.0 0.0 16.28999089631971 0.0 0.0 0.0 34.433804113860816" Properties=species:S:1:pos:R:3:initial_magmoms:R:1 pbc="T T T"
Si      -1.34692629      -0.93884387      -1.61646140       0.00000000
Si      -1.06864422       0.33754346       2.07339824       0.00000000
Si       0.62018473       2.09765190      -0.89355772       0.00000000
Si       1.84046375      -1.42013192       0.59419006       0.00000000
Si       2.55253223       1.35520583      -1.95360297       0.00000000
Si       0.85596131       0.69157240       3.36487322       0.00000000
Si       2.80072667      -0.04773996       2.27945024       0.00000000
Si       0.22615081      -2.04540728      -2.98785729       0.00000000
Si      -2.59470771      -2.51011211      -0.43520909       0.00000000
Si       0.50907879       3.69327369       0.81411889       0.00000000
