10
Lattice="16.28999089631971 0.0 0.0 0.0 16.28999089631971 0.0 0.0 0.0 34.433804113860816" Properties=species:S:1:pos:R:3:initial_magmoms:R:1 pbc="T T T"
Si      -0.47763909      -1.51894476       1.73246895       0.00000000
Si       1.89918594       1.34941473       0.41995491       0.00000000
Si      -1.75332528       1.60759494      -0.31310676       0.00000000
Si       0.69201549      -1.56506175      -1.75171746       0.00000000
Si      -2.12612193      -2.96908056       0.79996658       0.00000000
Si      -1.24820496       2.70951570      -2.35944001       0.00000000
Si       1.50149817      -2.84379417       2.05876386       0.00000000
Si      -3.82803597       0.45095607       0.01787115       0.00000000
Si      -3.39045399      -1.69699446      -0.80602694       0.00000000
Si       3.45727557       0.18057465       1.79035221       0.00000000
