10
Lattice="16.28999089631971 0.0 0.0 0.0 16.28999089631971 0.0 0.0 0.0 34.433804113860816" Properties=species:S:1:pos:R:3:initial_magmoms:R:1 pbc="T T T"
Si       1.35558864       1.33705062       1.35431671       0.00000000
Si      -1.35793440       1.35695700      -1.35806999       0.00000000
Si       1.35550719      -1.35912357      -1.35972282       0.00000000
Si      -1.36088289      -1.36446669       1.38513498       0.00000000
Si       2.70928764      -2.71524978      -0.00210046       0.00000000
Si       2.71088406       2.71414206       0.00385659       0.00000000
Si       2.71287144      -0.00110772      -2.71607112       0.00000000
Si      -0.00110772       2.71370223      -2.71624329       0.00000000
Si      -2.71730232      -0.00092853      -2.71572678       0.00000000
Si      -0.00149868      -2.71668330      -2.71634659       0.00000000
