10
Lattice="16.28999089631971 0.0 0.0 0.0 16.28999089631971 0.0 0.0 0.0 34.433804113860816" Properties=species:S:1:pos:R:3:initial_magmoms:R:1 pbc="T T T"
Si      -1.34291502       1.29738447      -1.43998806       0.00000000
Si      -1.90573452      -0.68597190       1.24812280       0.00000000
Si       1.35990549      -1.42715061      -1.41392165       0.00000000
Si       0.97586874       1.83316257       1.36588647       0.00000000
Si      -0.65129049       0.40009869       3.11646762       0.00000000
Si      -2.58056406       2.70860346      -0.01305042       0.00000000
Si      -2.65092057      -2.70710478       0.07169122       0.00000000
Si       2.74841622       2.63953386      -0.06198088       0.00000000
Si      -0.00032580       2.65038300      -2.79888446       0.00000000
Si      -2.71160082      -0.06260247      -2.79716277       0.00000000
