10
Lattice="16.28999089631971 0.0 0.0 0.0 16.28999089631971 0.0 0.0 0.0 34.433804113860816" Properties=species:S:1:pos:R:3:initial_magmoms:R:1 pbc="T T T"
Si       1.63364265      -1.51886331      -0.76945822       0.00000000
Si      -1.75130532      -0.80800029      -1.47390537       0.00000000
Si       1.25931474       2.06477379      -0.24943862       0.00000000
Si      -0.63853542      -0.39594474       2.40744076       0.00000000
Si       1.88279820      -0.96677892      -3.09026348       0.00000000
Si       3.66963201      -0.85700061       0.26297111       0.00000000
Si      -2.84464125      -1.47955554       2.08696517       0.00000000
Si       3.59214048       1.26980550      -0.83498578       0.00000000
Si      -0.26826372       3.64127112      -1.47252802       0.00000000
Si      -2.23262595      -3.12906465      -0.92210336       0.00000000
