10
Lattice="16.28999089631971 0.0 0.0 0.0 16.28999089631971 0.0 0.0 0.0 34.433804113860816" Properties=species:S:1:pos:R:3:initial_magmoms:R:1 pbc="T T T"
Si      -1.35327546       1.35050351       1.35534972       0.00000000
Si      -1.35816246      -1.34988714      -1.35968150       0.00000000
Si       1.36083402      -1.36202319       1.35493652       0.00000000
Si       1.34846991       1.36548838      -1.36561100       0.00000000
Si       2.65025268      -0.05095512      -2.71982785       0.00000000
Si      -2.70850572       2.70575827      -0.00685233       0.00000000
Si       0.00397476       2.70975095       2.71159472       0.00000000
Si      -2.71181259      -0.00509877       2.71252443       0.00000000
Si       2.71393029       2.71088147      -0.00058537       0.00000000
Si       2.71826343      -0.00431685       2.71193906       0.00000000
