10
Lattice="16.28999089631971 0.0 0.0 0.0 16.28999089631971 0.0 0.0 0.0 34.433804113860816" Properties=species:S:1:pos:R:3:initial_magmoms:R:1 pbc="T T T"
Si       1.40384451      -1.24471468       1.47561329       0.00000000
Si      -1.30487337       1.47542928       1.45035264       0.00000000
Si       1.80216759       1.16880261      -1.18717837       0.00000000
Si      -1.19193230      -1.57403332      -1.55217487       0.00000000
Si       3.01644048      -0.96000391      -1.56037012       0.00000000
Si       2.65970577      -2.67864193       0.07682875       0.00000000
Si      -2.75930024      -2.66355739      -0.10884876       0.00000000
Si       0.06133837      -2.58735277       2.84300797       0.00000000
Si      -2.63414417       2.84165529      -0.04343827       0.00000000
Si      -2.65450667       0.12498014       2.84021883       0.00000000
