10
Lattice="16.28999089631971 0.0 0.0 0.0 16.28999089631971 0.0 0.0 0.0 34.433804113860816" Properties=species:S:1:pos:R:3:initial_magmoms:R:1 pbc="T T T"
Si       1.38396582       0.65093767       1.88976266       0.00000000
Si      -1.98840627      -0.21849777       1.48037893       0.00000000
Si      -0.54949428       1.77727877      -1.67995737       0.00000000
Si       1.08146052      -2.14149969      -1.01118366       0.00000000
Si      -1.58987142       0.07952778      -2.99522612       0.00000000
Si      -3.38341508       0.63196470      -0.24537543       0.00000000
Si      -1.50643404       1.65251691       2.89302654       0.00000000
Si      -2.92971903      -1.41185430      -1.68192010       0.00000000
Si       3.13448922      -0.89547759       1.72454918       0.00000000
Si       1.89916965       3.05814518       1.40717263       0.00000000
