10
Lattice="16.28999089631971 0.0 0.0 0.0 16.28999089631971 0.0 0.0 0.0 34.433804113860816" Properties=species:S:1:pos:R:3:initial_magmoms:R:1 pbc="T T T"
Si       0.60238791       2.29104908       0.36492966       0.00000000
Si      -1.01384073      -0.37825380       2.17911008       0.00000000
Si       2.04893991      -1.42548903      -0.26582912       0.00000000
Si      -1.17981954      -0.35323236      -2.24808103       0.00000000
Si      -2.75032215       1.28728534      -1.60826615       0.00000000
Si       1.58553828       2.74309658      -1.74300570       0.00000000
Si       1.01053386      -3.46960710       0.40538940       0.00000000
Si       0.18625986      -2.57197923       2.62556936       0.00000000
Si       1.42609176       2.22867467       2.60581402       0.00000000
Si       2.85768954      -0.95790087      -2.50213377       0.00000000
