10
Lattice="16.28999089631971 0.0 0.0 0.0 16.28999089631971 0.0 0.0 0.0 34.433804113860816" Properties=species:S:1:pos:R:3:initial_magmoms:R:1 pbc="T T T"
Si       1.44164871      -1.28197902      -1.30249380       0.00000000
Si      -1.28146914       1.47372372      -1.29808627       0.00000000
Si       1.82964393       0.85325391       1.34464080       0.00000000
Si      -1.77386697      -1.01838075       1.33462056       0.00000000
Si      -0.47776941      -1.20030096       3.32427574       0.00000000
Si       0.77203197       0.78547122       3.47940011       0.00000000
Si       0.08187354      -2.61745181      -2.66724396       0.00000000
Si      -2.63192643       0.09718614      -2.66414491       0.00000000
Si       2.66452272       2.66694993       0.04782858       0.00000000
Si       2.83423194      -2.47890094       0.28652384       0.00000000
