10
Lattice="16.28999089631971 0.0 0.0 0.0 16.28999089631971 0.0 0.0 0.0 34.433804113860816" Properties=species:S:1:pos:R:3:initial_magmoms:R:1 pbc="T T T"
Si      -0.18023256       2.02686696       1.08339138       0.00000000
Si       1.05006969      -1.29740402       1.61339679       0.00000000
Si       1.46958606       0.20758347      -1.83590816       0.00000000
Si      -2.25761481      -0.66173238      -0.34175570       0.00000000
Si      -0.79047225      -1.11090470       3.05558862       0.00000000
Si      -1.83130551      -2.06975853      -2.22084387       0.00000000
Si       0.90298728      -3.55155299       0.59873532       0.00000000
Si      -2.69219943      -1.78070877       1.84944065       0.00000000
Si       3.09407373       1.77176556      -1.24040962       0.00000000
Si       2.97921294       0.00022806       2.40795727       0.00000000
