10
Lattice="16.28999089631971 0.0 0.0 0.0 16.28999089631971 0.0 0.0 0.0 34.433804113860816" Properties=species:S:1:pos:R:3:initial_magmoms:R:1 pbc="T T T"
Si       2.25761481       0.66173238       0.34175570       0.00000000
Si       0.42630930      -1.40802615      -1.87908817       0.00000000
Si      -1.42017849       1.94411376      -0.60376266       0.00000000
Si      -0.43458462      -1.11897639       2.19119635       0.00000000
Si       2.07738225       2.68859934       1.42514708       0.00000000
Si       1.46714256      -0.44917231       3.39734431       0.00000000
Si       2.13768783      -2.93991236      -1.26475433       0.00000000
Si       3.30768450      -0.63567164       1.95515249       0.00000000
Si      -2.65377132       1.12809879      -2.63267240       0.00000000
Si      -1.41845175      -2.82552398      -2.31529585       0.00000000
