10
Lattice="16.28999089631971 0.0 0.0 0.0 16.28999089631971 0.0 0.0 0.0 34.433804113860816" Properties=species:S:1:pos:R:3:initial_magmoms:R:1 pbc="T T T"
Si       1.35378045      -1.35612621       1.35762235       0.00000000
Si      -1.35700587      -1.35755973      -1.35662377       0.00000000
Si       1.35736425       1.35801585      -1.35634830       0.00000000
Si      -1.35550719       1.35912357       1.35972282       0.00000000
Si       0.00008145       2.69617419       2.71403952       0.00000000
Si      -0.00319284      -2.69480583       2.72850173       0.00000000
Si      -2.71453302       0.00019548      -2.71369518       0.00000000
Si       2.71440270       2.71412577       0.00196273       0.00000000
Si       0.00032580       2.71485882      -2.71376405       0.00000000
Si       2.71570590      -2.71339272       0.00113632       0.00000000
