10
Lattice="16.28999089631971 0.0 0.0 0.0 16.28999089631971 0.0 0.0 0.0 34.433804113860816" Properties=species:S:1:pos:R:3:initial_magmoms:R:1 pbc="T T T"
Si       0.41475969       0.93727773       2.06058886       0.00000000
Si       0.18023256      -2.02686696      -1.08339138       0.00000000
Si      -0.83160450       1.75772358      -1.25325343       0.00000000
Si      -1.16234037      -0.87135210       2.34446130       0.00000000
Si       1.34045523       2.83245633      -1.46571013       0.00000000
Si       1.23030225      -3.32427098       0.53000541       0.00000000
Si      -2.07738225      -2.68859934      -1.42514708       0.00000000
Si      -2.08757979       3.08118834       0.19124545       0.00000000
Si       3.06682056       2.14037568       0.12750845       0.00000000
Si      -0.61023969      -3.13777165       1.97219723       0.00000000
