10
Lattice="16.28999089631971 0.0 0.0 0.0 16.28999089631971 0.0 0.0 0.0 34.433804113860816" Properties=species:S:1:pos:R:3:initial_magmoms:R:1 pbc="T T T"
Si      -0.56555622       1.99904364       1.12750111       0.00000000
Si      -1.89918594      -1.34941473      -0.41995491       0.00000000
Si       1.29381696       0.38320596      -1.95608220       0.00000000
Si       1.55808963      -1.16884008       1.37039730       0.00000000
Si      -3.65251122       0.25818021      -0.73306167       0.00000000
Si       1.58513103      -3.35399697       0.46368587       0.00000000
Si       2.74292649      -1.49003001      -2.16860776       0.00000000
Si       3.42881694       0.30802761       1.65513059       0.00000000
Si      -0.81471177       1.44695925       3.44830637       0.00000000
Si      -1.20717045      -2.91447648      -2.17167237       0.00000000
