10
Lattice="16.28999089631971 0.0 0.0 0.0 16.28999089631971 0.0 0.0 0.0 34.433804113860816" Properties=species:S:1:pos:R:3:initial_magmoms:R:1 pbc="T T T"
Si       0.28908234       1.92331143      -1.35986055       0.00000000
Si      -2.26878975      -0.62126802      -0.54973599       0.00000000
Si       2.11626648      -1.21982778      -0.82152216       0.00000000
Si      -1.51995474      -0.73059021       1.95773503       0.00000000
Si      -2.19129822      -2.74807413       0.54822090       0.00000000
Si       1.55492937      -0.85470372      -3.12820955       0.00000000
Si       0.12989646       1.07843058      -3.54217297       0.00000000
Si      -2.14000101      -1.43005023      -2.73370124       0.00000000
Si       2.61773784       2.33803854      -1.37122371       0.00000000
Si       3.79820898       0.47156292      -0.36744333       0.00000000
