10
Lattice="16.28999089631971 0.0 0.0 0.0 16.28999089631971 0.0 0.0 0.0 34.433804113860816" Properties=species:S:1:pos:R:3:initial_magmoms:R:1 pbc="T T T"
Si       1.32607116       1.34855136      -1.37525247       0.00000000
Si      -1.38593691      -1.36713825      -1.36812467       0.00000000
Si      -1.18903968       1.41110496       1.50844250       0.00000000
Si       1.44031293      -1.32136335       1.40600188       0.00000000
Si      -0.42803604      -2.18992986       2.61414700       0.00000000
Si      -2.23567218      -0.44098659       2.61194324       0.00000000
Si       2.68407072       2.70835911       0.02079803       0.00000000
Si       2.68307703      -2.72769534      -0.01590843       0.00000000
Si       2.68882740      -0.00803097      -2.72970691       0.00000000
Si      -2.72696229       2.69364924       0.01225844       0.00000000
