10
Lattice="16.28999089631971 0.0 0.0 0.0 16.28999089631971 0.0 0.0 0.0 34.433804113860816" Properties=species:S:1:pos:R:3:initial_magmoms:R:1 pbc="T T T"
Si       1.11907413       1.14101676      -1.72954208       0.00000000
Si      -2.26095426       0.62737677       0.22543824       0.00000000
Si      -0.35577360      -2.30668029       0.40005216       0.00000000
Si       1.36803420       0.60323499       1.84465435       0.00000000
Si      -0.86304420      -1.97068275       2.65718928       0.00000000
Si      -2.50823646      -0.27287379       2.51683702       0.00000000
Si      -3.30869448      -0.86431482      -1.22866769       0.00000000
Si       0.16892730       2.46704949       2.66941329       0.00000000
Si       1.26615654       3.39516573      -0.71488061       0.00000000
Si      -0.57438540       3.58166505       0.72731122       0.00000000
