10
Lattice="16.28999089631971 0.0 0.0 0.0 16.28999089631971 0.0 0.0 0.0 34.433804113860816" Properties=species:S:1:pos:R:3:initial_magmoms:R:1 pbc="T T T"
Si       0.90868878       1.62904954      -1.55076167       0.00000000
Si      -1.19195559       1.10729876       1.82114883       0.00000000
Si      -2.07169704      -0.59904846      -1.20359986       0.00000000
Si       1.57703490      -1.70313579       1.25972699       0.00000000
Si      -1.26294741      -0.13146030      -3.43990452       0.00000000
Si       0.42002136       2.29029322       3.05539032       0.00000000
Si      -2.33979786      -0.55726461       3.05153717       0.00000000
Si      -0.64607769       2.19129726      -3.24087702       0.00000000
Si       2.88989487       0.77115231      -2.68576935       0.00000000
Si       2.01085389       3.48901568      -0.55968736       0.00000000
