10
Lattice="16.28999089631971 0.0 0.0 0.0 16.28999089631971 0.0 0.0 0.0 34.433804113860816" Properties=species:S:1:pos:R:3:initial_magmoms:R:1 pbc="T T T"
Si       1.35686758      -1.35896825       1.36082470       0.00000000
Si      -1.35889551       1.35768190       1.36075583       0.00000000
Si       1.34963330       1.35044914      -1.38986619       0.00000000
Si      -1.35058761      -1.35705378      -1.38524172       0.00000000
Si       2.71489370       2.71323796      -0.00382215       0.00000000
Si       2.71584504      -2.71233291       0.00278914       0.00000000
Si      -2.71660185      -2.71415739      -0.00216933       0.00000000
Si      -2.71769328       2.71333570       0.00086085       0.00000000
Si       2.71449948      -0.00110935       2.71748291       0.00000000
Si      -0.00089595       2.71436197       2.71786168       0.00000000
