10
Lattice="16.28999089631971 0.0 0.0 0.0 16.28999089631971 0.0 0.0 0.0 34.433804113860816" Properties=species:S:1:pos:R:3:initial_magmoms:R:1 pbc="T T T"
Si       1.35668426      -1.35518399       1.35796669       0.00000000
Si      -1.35638685      -1.35591780      -1.35820773       0.00000000
Si      -1.35477414       1.35767539       1.35837990       0.00000000
Si       1.35895258       1.35912520      -1.35776009       0.00000000
Si       2.71780472      -2.71092220       0.00027547       0.00000000
Si       0.00123804      -2.71325167      -2.71572678       0.00000000
Si      -2.71370223       0.00218938      -2.71538244       0.00000000
Si      -2.71399545      -2.71509244      -0.00120518       0.00000000
Si       2.71314904       2.71712476      -0.00168726       0.00000000
Si       2.70280000      -0.00043494       2.72764088       0.00000000
