10
Lattice="16.28999089631971 0.0 0.0 0.0 16.28999089631971 0.0 0.0 0.0 34.433804113860816" Properties=species:S:1:pos:R:3:initial_magmoms:R:1 pbc="T T T"
Si       1.35477414      -1.35767539      -1.35837990       0.00000000
Si       1.36117611       1.36677987       1.34956484       0.00000000
Si      -1.35832536       1.36029645      -1.35920631       0.00000000
Si      -1.35410625      -1.37681940       1.36375157       0.00000000
Si      -0.13123224       2.57210955       2.71407396       0.00000000
Si       2.71145840      -2.71285938      -0.00041321       0.00000000
Si      -2.71388142      -2.71229219      -0.00099858       0.00000000
Si       2.71372672       0.00144981      -2.71613999       0.00000000
Si      -0.00161271      -2.71359319      -2.71658763       0.00000000
Si       2.71546997       2.71547784      -0.00358112       0.00000000
