10
Lattice="16.28999089631971 0.0 0.0 0.0 16.28999089631971 0.0 0.0 0.0 34.433804113860816" Properties=species:S:1:pos:R:3:initial_magmoms:R:1 pbc="T T T"
Si      -1.97574894       0.71410473       1.03335904       0.00000000
Si      -0.70824033      -1.69297083      -1.53316598       0.00000000
Si       0.97083091      -1.25447661       1.84523973       0.00000000
Si       1.27661702       2.01955275      -0.64243184       0.00000000
Si      -2.31378273      -2.76263087      -0.19214073       0.00000000
Si       2.90317841      -1.99692268       0.78519447       0.00000000
Si       0.85972497       0.34114518       3.55291633       0.00000000
Si      -1.46701224       0.80743014       3.30161828       0.00000000
Si      -3.60023661      -0.85007736       0.43786050       0.00000000
Si      -2.27651121       2.94054048       0.38455694       0.00000000
