10
Lattice="16.28999089631971 0.0 0.0 0.0 16.28999089631971 0.0 0.0 0.0 34.433804113860816" Properties=species:S:1:pos:R:3:initial_magmoms:R:1 pbc="T T T"
Si       1.32172173       1.27511604      -1.46101133       0.00000000
Si      -1.90265571      -0.75232107      -1.25905695       0.00000000
Si       1.32927080      -1.36622601       1.49379091       0.00000000
Si      -1.36723599       1.37064060       1.49536109       0.00000000
Si      -0.30719682       1.71602118      -3.21117926       0.00000000
Si       2.64122706       2.68231140       0.05414719       0.00000000
Si      -2.75962374      -2.63045056       0.17291633       0.00000000
Si       2.63414417      -2.84165529       0.04343827       0.00000000
Si      -1.16879121      -1.43172810      -3.44216135       0.00000000
Si      -2.69175960       2.84084568      -0.01114279       0.00000000
