10
Lattice="16.28999089631971 0.0 0.0 0.0 16.28999089631971 0.0 0.0 0.0 34.433804113860816" Properties=species:S:1:pos:R:3:initial_magmoms:R:1 pbc="T T T"
Si       0.14805981       2.27103777      -0.35304999       0.00000000
Si      -2.10470058      -0.94480371      -0.44464396       0.00000000
Si       0.57723615      -0.13222593       2.28051769       0.00000000
Si       1.51093008      -0.01378134      -1.85970193       0.00000000
Si      -3.26937042       0.26854065       1.25376994       0.00000000
Si       2.05490205       2.67529041       0.98198377       0.00000000
Si       0.18595035      -1.33504695      -3.26828634       0.00000000
Si      -1.70654040      -3.21652566       0.16328519       0.00000000
Si      -1.98382878       3.02383125       0.49529612       0.00000000
Si       2.81957094       0.83237013       2.27190923       0.00000000
