10
Lattice="16.28999089631971 0.0 0.0 0.0 16.28999089631971 0.0 0.0 0.0 34.433804113860816" Properties=species:S:1:pos:R:3:initial_magmoms:R:1 pbc="T T T"
Si       0.37678770      -2.02657374       1.05436367       0.00000000
Si      -2.22107634       0.70120305       0.27295692       0.00000000
Si       0.99268002       1.86140943       1.05636083       0.00000000
Si       0.87532686      -0.60044940      -2.12418813       0.00000000
Si      -0.94048686       0.25682814      -3.29531690       0.00000000
Si       2.72331400      -1.90674450       1.45482904       0.00000000
Si       3.16800168       1.86665481       0.26558808       0.00000000
Si      -2.37304575       2.77094529      -0.81594388       0.00000000
Si      -0.85905315      -1.98430119       3.08268804       0.00000000
Si      -2.40047811       1.31400027       2.60426449       0.00000000
