10
Lattice="16.28999089631971 0.0 0.0 0.0 16.28999089631971 0.0 0.0 0.0 34.433804113860816" Properties=species:S:1:pos:R:3:initial_magmoms:R:1 pbc="T T T"
Si      -0.14805981      -2.27103777       0.35304999       0.00000000
Si       1.90684224       0.40425264       1.33503377       0.00000000
Si      -2.13188859       0.75279348       0.84834611       0.00000000
Si      -1.59163074       1.14596892      -1.64380186       0.00000000
Si       1.36287027      -2.28481911      -1.50665194       0.00000000
Si       0.27671823       2.01453543      -2.85194699       0.00000000
Si       0.42917634      -2.40326370       2.63356768       0.00000000
Si       3.45410946       1.34190504      -0.08360532       0.00000000
Si       1.82342115       2.99827224      -1.27828682       0.00000000
Si      -2.47518405      -0.70389090      -2.91905851       0.00000000
