10
Lattice="16.28999089631971 0.0 0.0 0.0 16.28999089631971 0.0 0.0 0.0 34.433804113860816" Properties=species:S:1:pos:R:3:initial_magmoms:R:1 pbc="T T T"
Si       2.17532166       0.00524538      -0.79077275       0.00000000
Si       0.65484171      -0.63604305       2.15366348       0.00000000
Si      -0.99268002      -1.86140943      -1.05636083       0.00000000
Si      -1.11373101       2.16883431       0.67245814       0.00000000
Si      -1.67506812       2.53395837      -1.63422926       0.00000000
Si      -3.21375636      -1.16020638      -0.78340392       0.00000000
Si       1.87399087       0.59639319      -3.01151332       0.00000000
Si       3.27478589       1.49819130       0.61419611       0.00000000
Si      -1.57169178      -0.38115342       3.29535133       0.00000000
Si       2.35575621       1.03189005       2.71741404       0.00000000
