10
Lattice="16.28999089631971 0.0 0.0 0.0 16.28999089631971 0.0 0.0 0.0 34.433804113860816" Properties=species:S:1:pos:R:3:initial_magmoms:R:1 pbc="T T T"
Si       1.35058761       1.35705378       1.38524172       0.00000000
Si      -1.36601424      -1.35710361       1.38307239       0.00000000
Si      -1.38867363       1.44327838      -1.32549904       0.00000000
Si       1.24579404      -1.43148375      -1.56382586       0.00000000
Si       2.68304463      -2.70358614       0.01378386       0.00000000
Si       2.70022091       2.70750293      -0.00462446       0.00000000
Si      -2.72803743      -2.71666701       0.01980634       0.00000000
Si       2.70745519      -0.00191447       2.74606642       0.00000000
Si      -0.00830790       2.71473569       2.74599755       0.00000000
Si      -0.00636939      -2.71682991       2.74510228       0.00000000
