10
Lattice="16.28999089631971 0.0 0.0 0.0 16.28999089631971 0.0 0.0 0.0 34.433804113860816" Properties=species:S:1:pos:R:3:initial_magmoms:R:1 pbc="T T T"
Si       1.43904298      -1.18563507      -1.40324717       0.00000000
Si       1.36716661       1.37909511       1.31671497       0.00000000
Si      -0.99499320      -1.50752547       1.57916957       0.00000000
Si      -1.29793833       1.53846018      -1.37969443       0.00000000
Si      -0.48120660       1.50640146       2.81066083       0.00000000
Si      -2.54169612      -2.49126228       0.00550941       0.00000000
Si       0.07009587      -2.53993680      -2.77020109       0.00000000
Si       2.90980844      -2.47989186       0.01353249       0.00000000
Si      -2.65593789       0.17865243      -2.77574493       0.00000000
Si      -2.28970611      -0.03218904       3.09787335       0.00000000
