10
Lattice="16.28999089631971 0.0 0.0 0.0 16.28999089631971 0.0 0.0 0.0 34.433804113860816" Properties=species:S:1:pos:R:3:initial_magmoms:R:1 pbc="T T T"
Si      -2.24647245      -0.22351509       0.55569304       0.00000000
Si       0.56420415      -1.64252070      -1.58157994       0.00000000
Si       0.95340483       1.90889545      -1.07881169       0.00000000
Si       1.12368420      -0.56856987       2.04802051       0.00000000
Si       2.87801036       2.26292439       0.21266329       0.00000000
Si       2.56519837       1.24432794       2.34628629       0.00000000
Si      -0.57265866      -0.93876012      -3.58741902       0.00000000
Si      -2.36434689      -2.03466987       2.08569111       0.00000000
Si       2.97554184      -1.77614757      -1.57138753       0.00000000
Si      -3.61450665      -0.82675008      -1.28896131       0.00000000
