10
Lattice="16.28999089631971 0.0 0.0 0.0 16.28999089631971 0.0 0.0 0.0 34.433804113860816" Properties=species:S:1:pos:R:3:initial_magmoms:R:1 pbc="T T T"
Si       0.07783362      -1.02949542      -2.08975431       0.00000000
Si      -0.99795865       2.10261546      -0.33455903       0.00000000
Si       2.25594346       0.60150825       0.41334362       0.00000000
Si      -2.18359372       0.11665269       1.15549581       0.00000000
Si      -0.55467517      -0.32425245       2.90566375       0.00000000
Si       2.50400758      -1.85629437       1.14165341       0.00000000
Si       1.52347990       0.59833170      -3.08988471       0.00000000
Si      -2.26869268      -1.14932466      -2.49021967       0.00000000
Si      -3.50453353      -1.10705211      -0.46189531       0.00000000
Si       0.83649639      -3.23270163      -1.79014561       0.00000000
