10
Lattice="16.28999089631971 0.0 0.0 0.0 16.28999089631971 0.0 0.0 0.0 34.433804113860816" Properties=species:S:1:pos:R:3:initial_magmoms:R:1 pbc="T T T"
Si       1.35744513      -1.35770634      -1.35641717       0.00000000
Si      -1.35494643      -1.35868374       1.35813886       0.00000000
Si      -1.35794379       1.35739683      -1.35645160       0.00000000
Si       1.35756405       1.35736425       1.35755349       0.00000000
Si       2.71448195      -0.00016290      -2.71317868       0.00000000
Si      -0.00157399      -2.71368594      -2.71431499       0.00000000
Si      -2.71402113      -0.00255753      -2.71445273       0.00000000
Si       2.71428647      -2.71502172       0.00151509       0.00000000
Si       0.00055004       2.71551042      -2.71379849       0.00000000
Si       2.71482404       2.71466334       0.00082641       0.00000000
