10
Lattice="16.28999089631971 0.0 0.0 0.0 16.28999089631971 0.0 0.0 0.0 34.433804113860816" Properties=species:S:1:pos:R:3:initial_magmoms:R:1 pbc="T T T"
Si       1.35595842       1.35490446      -1.35645160       0.00000000
Si      -1.35696351      -1.35672894      -1.35762235       0.00000000
Si      -1.35750461       1.35708732       1.35710585       0.00000000
Si       1.35731049      -1.35757602       1.35700254       0.00000000
Si       2.71267107       0.00223173      -2.71255887       0.00000000
Si       0.00005050      -2.71487511       2.71372962       0.00000000
Si       2.71441410      -2.71467963      -0.00027547       0.00000000
Si       2.71444668       2.71510317      -0.00048207       0.00000000
Si      -2.71545733      -2.71484253      -0.00027547       0.00000000
Si      -2.71540846      -0.00288333      -2.71507254       0.00000000
