10
Lattice="16.28999089631971 0.0 0.0 0.0 16.28999089631971 0.0 0.0 0.0 34.433804113860816" Properties=species:S:1:pos:R:3:initial_magmoms:R:1 pbc="T T T"
Si       1.35660839       1.35570292      -1.35910301       0.00000000
Si      -1.36112046       1.35573820       1.35769122       0.00000000
Si      -1.35872799      -1.36045935      -1.35858650       0.00000000
Si       1.35859577      -1.36560699       1.35714028       0.00000000
Si       2.70937886       0.01443294       2.71679423       0.00000000
Si       2.71532471       2.71160475      -0.00230707       0.00000000
Si      -0.00112238       2.71192403      -2.71644989       0.00000000
Si      -2.71780472       2.71092220      -0.00027547       0.00000000
Si       2.71322330      -0.00244350      -2.71617442       0.00000000
Si       2.71416812      -2.71743264      -0.00034434       0.00000000
