10
Lattice="16.28999089631971 0.0 0.0 0.0 16.28999089631971 0.0 0.0 0.0 34.433804113860816" Properties=species:S:1:pos:R:3:initial_magmoms:R:1 pbc="T T T"
Si       1.35557235      -1.35182565      -1.35748462       0.00000000
Si      -1.34284009      -1.35742941       1.36957089       0.00000000
Si      -1.35859577       1.36560699      -1.35714028       0.00000000
Si       1.35078309       1.38003993       1.35965395       0.00000000
Si       2.70816363      -2.70990666       0.00051651       0.00000000
Si      -2.71178720      -2.71173114       0.00261697       0.00000000
Si      -0.00250866      -2.70951570      -2.71583008       0.00000000
Si       2.71238274       0.00544086      -2.71589895       0.00000000
Si      -2.71732376       0.00514764      -2.71572678       0.00000000
Si       2.70514998       2.72956869      -0.00736884       0.00000000
