10
Lattice="16.28999089631971 0.0 0.0 0.0 16.28999089631971 0.0 0.0 0.0 34.385447050020396" Properties=species:S:1:pos:R:3:initial_magmoms:R:1 pbc="T T T"
Si       1.32905223       1.36762695       1.37544960       0.00000000
Si      -1.30353624       1.44930501      -1.31984142       0.00000000
Si      -1.37487015      -1.36370106       1.36599359       0.00000000
Si       1.97765161      -0.80707176      -1.17523678       0.00000000
Si       0.25199164       2.61742833      -2.64782085       0.00000000
Si       2.69325502       2.71578735       0.02023929       0.00000000
Si       2.69335276       0.00159642       2.72521669       0.00000000
Si      -2.71309365      -2.70769841      -0.02560686       0.00000000
Si      -0.02133530      -2.71196655       2.72600756       0.00000000
Si      -0.01788057       2.71744893       2.72948049       0.00000000
