10
Lattice="16.28999089631971 0.0 0.0 0.0 16.28999089631971 0.0 0.0 0.0 34.385447050020396" Properties=species:S:1:pos:R:3:initial_magmoms:R:1 pbc="T T T"
Si       1.28777663      -1.34861440       1.36713175       0.00000000
Si      -1.32553752      -1.36361223      -1.36070167       0.00000000
Si       1.38823706       1.34905472      -1.35540631       0.00000000
Si      -1.38129819       1.38225374       1.44312363       0.00000000
Si       2.07332930       0.49814657       2.74901487       0.00000000
Si       0.42338036       2.38908977       2.54837568       0.00000000
Si      -2.67151506       2.71873421       0.00316346       0.00000000
Si      -2.68461222      -0.00907190      -2.71665815       0.00000000
Si      -2.68350450      -2.72640096       0.01004056       0.00000000
Si       0.02906625       2.70741266      -2.71762094       0.00000000
