10
Lattice="16.28999089631971 0.0 0.0 0.0 16.28999089631971 0.0 0.0 0.0 34.385447050020396" Properties=species:S:1:pos:R:3:initial_magmoms:R:1 pbc="T T T"
Si      -1.34724816       1.34553734      -1.35733190       0.00000000
Si       1.35819504       1.35460761       1.35544069       0.00000000
Si      -1.35646830      -1.35838016       1.35375581       0.00000000
Si       1.35487188      -1.35715841      -1.36372759       0.00000000
Si       0.00083079       2.71326365       2.71294452       0.00000000
Si      -2.71427238      -0.00171622       2.71232558       0.00000000
Si      -2.68467345      -0.01241808      -2.74201399       0.00000000
Si       2.71564074      -0.00183294       2.71246312       0.00000000
Si       2.71590138       2.71254689      -0.00206313       0.00000000
Si       0.00079821      -2.71678697       2.71198172       0.00000000
