10
Lattice="16.28999089631971 0.0 0.0 0.0 16.28999089631971 0.0 0.0 0.0 34.385447050020396" Properties=species:S:1:pos:R:3:initial_magmoms:R:1 pbc="T T T"
Si       0.81507015      -1.94240559      -0.97857598       0.00000000
Si       1.29388212       1.94253363      -0.31390492       0.00000000
Si       0.08539218      -0.39018297       2.33563280       0.00000000
Si      -2.21040639      -0.04966821      -0.98328679       0.00000000
Si      -0.29131407       3.51116289       0.36789010       0.00000000
Si      -2.12869575       2.46879837       1.44057911       0.00000000
Si      -2.63151918      -2.37702770      -0.53665397       0.00000000
Si      -1.38034944       1.18900710       3.25461877       0.00000000
Si      -0.62801208      -3.71389913      -0.41743956       0.00000000
Si       0.91049697      -1.61527079      -3.33676565       0.00000000
