10
Lattice="16.28999089631971 0.0 0.0 0.0 16.28999089631971 0.0 0.0 0.0 34.385447050020396" Properties=species:S:1:pos:R:3:initial_magmoms:R:1 pbc="T T T"
Si       2.24200899       0.40068513      -0.65064179       0.00000000
Si      -0.09542682      -0.32713480       2.35818966       0.00000000
Si      -0.48769002      -2.16846357      -0.88814221       0.00000000
Si      -1.13673249       1.88519609      -0.96520004       0.00000000
Si       3.05281116      -1.71519432      -0.14919854       0.00000000
Si      -0.89655273      -1.68142515      -3.17666692       0.00000000
Si       3.05212698       1.80962678       1.10738394       0.00000000
Si       1.52998938      -3.36022368      -0.96193342       0.00000000
Si      -0.91049697       1.61527079       3.33676565       0.00000000
Si       0.22024080       3.73264499      -0.77762732       0.00000000
