10
Lattice="16.28999089631971 0.0 0.0 0.0 16.28999089631971 0.0 0.0 0.0 34.385447050020396" Properties=species:S:1:pos:R:3:initial_magmoms:R:1 pbc="T T T"
Si      -0.34717248      -2.23271784       0.48356281       0.00000000
Si       1.65060054       1.28035816       1.02805667       0.00000000
Si      -2.06002363       1.09416346       0.52988004       0.00000000
Si       0.80071866       0.36919330      -2.23037888       0.00000000
Si      -0.84923028       2.26013650      -2.43101808       0.00000000
Si       0.48177675       3.40524205       0.73512688       0.00000000
Si      -2.55049940      -2.49580134      -0.44793947       0.00000000
Si      -1.66745092       3.23626588      -0.36713362       0.00000000
Si       1.70145792       0.42099550       3.26022360       0.00000000
Si      -3.68485406      -0.42966504      -0.31166987       0.00000000
