10
Lattice="16.28999089631971 0.0 0.0 0.0 16.28999089631971 0.0 0.0 0.0 34.385447050020396" Properties=species:S:1:pos:R:3:initial_magmoms:R:1 pbc="T T T"
Si       1.44138807       1.32497973      -1.35908555       0.00000000
Si      -1.56515949      -1.40056533      -1.19334761       0.00000000
Si       0.72581724      -0.15680754       2.29994068       0.00000000
Si      -0.38753910       1.88685441       1.90959687       0.00000000
Si      -0.63115605      -2.00425644       2.11236796       0.00000000
Si      -0.11834685       2.55788838      -2.77989302       0.00000000
Si       2.59669116      -0.17264142      -2.78835185       0.00000000
Si       2.92100877       2.62692540       0.22037645       0.00000000
Si      -2.82618468      -0.16120584      -2.80812349       0.00000000
Si      -0.13310559      -2.87472725      -2.76744548       0.00000000
