10
Lattice="16.28999089631971 0.0 0.0 0.0 16.28999089631971 0.0 0.0 0.0 34.385447050020396" Properties=species:S:1:pos:R:3:initial_magmoms:R:1 pbc="T T T"
Si       1.25850024      -1.88841825       0.70552100       0.00000000
Si       1.33094187       1.37559276      -1.42950699       0.00000000
Si      -1.73315826       1.18555362       1.20565760       0.00000000
Si      -1.49742567      -0.69033762      -1.81469298       0.00000000
Si       0.28895202       1.51329213       2.15332105       0.00000000
Si       0.01653435      -2.12677353      -2.90182388       0.00000000
Si       0.76488066      -3.40656480      -1.08778423       0.00000000
Si       3.46659345      -0.98634321       1.02747212       0.00000000
Si      -3.33463305      -0.43815213       1.90705234       0.00000000
Si      -2.10463542       1.26498366      -3.04830597       0.00000000
