10
Lattice="16.28999089631971 0.0 0.0 0.0 16.28999089631971 0.0 0.0 0.0 34.385447050020396" Properties=species:S:1:pos:R:3:initial_magmoms:R:1 pbc="T T T"
Si      -1.46531808       2.01937356       0.06629518       0.00000000
Si       1.85561019       0.84751983       1.47534079       0.00000000
Si      -0.27761418      -0.41140395      -2.50247108       0.00000000
Si      -0.89984331      -1.96418304       1.60722281       0.00000000
Si      -1.98614196      -0.37527273       2.94412286       0.00000000
Si      -3.17187314       1.07948943       1.53339721       0.00000000
Si       0.73591704       2.32885098       2.94371711       0.00000000
Si       2.97075843       2.59651197       0.11732321       0.00000000
Si      -0.47947986       3.67290630       1.49407056       0.00000000
Si      -1.85243364       2.75019183      -2.46657265       0.00000000
