10
Lattice="16.28999089631971 0.0 0.0 0.0 16.28999089631971 0.0 0.0 0.0 34.385447050020396" Properties=species:S:1:pos:R:3:initial_magmoms:R:1 pbc="T T T"
Si       1.07989668      -0.73497222       1.86816238       0.00000000
Si      -2.31060618      -0.51230421       0.19854168       0.00000000
Si       0.78890841      -0.46548675      -2.19767831       0.00000000
Si       0.88552440       2.25491067       0.01217246       0.00000000
Si       3.14022330       1.61846037      -0.20975134       0.00000000
Si       3.05382114      -0.07455933      -1.81170145       0.00000000
Si       3.02197419       0.49374990       1.90333871       0.00000000
Si      -0.24467580       1.22346045      -3.45457025       0.00000000
Si      -2.95049367      -1.16582643      -2.00171553       0.00000000
Si       0.50419179       3.21799176      -2.11852296       0.00000000
