10
Lattice="16.28999089631971 0.0 0.0 0.0 16.28999089631971 0.0 0.0 0.0 34.385447050020396" Properties=species:S:1:pos:R:3:initial_magmoms:R:1 pbc="T T T"
Si      -0.75175092      -2.16279072       0.51867037       0.00000000
Si       2.13130215      -0.18062352       0.99250210       0.00000000
Si      -0.93590937       1.59803271       1.48913139       0.00000000
Si      -0.28481436       0.51880392      -2.34993715       0.00000000
Si      -2.57124618       0.27456795      -2.38542295       0.00000000
Si       0.87578298       3.16627101       1.51536750       0.00000000
Si       0.45069543      -2.65584015       2.54411188       0.00000000
Si      -2.94142014       2.23889760       0.35025036       0.00000000
Si       0.93551841       2.48223762      -2.63801859       0.00000000
Si       1.75962951      -0.83790873       3.32015747       0.00000000
