10
Lattice="16.28999089631971 0.0 0.0 0.0 16.28999089631971 0.0 0.0 0.0 34.385447050020396" Properties=species:S:1:pos:R:3:initial_magmoms:R:1 pbc="T T T"
Si       1.01516022       0.74427381      -2.01020874       0.00000000
Si      -1.90407294      -1.34835588      -0.64888813       0.00000000
Si       2.13545610      -0.50450130       1.09056945       0.00000000
Si      -1.00071099       1.94284314       1.18519825       0.00000000
Si       2.50111773      -2.25306990      -0.64723763       0.00000000
Si      -1.80672390      -0.78488478      -2.98813140       0.00000000
Si       1.20871800      -0.45802593       3.35670922       0.00000000
Si       1.82659770       2.89230579      -1.24881136       0.00000000
Si      -3.61447407      -0.30434607       0.77281335       0.00000000
Si       2.11978512      -1.28998881      -2.77793305       0.00000000
