10
Lattice="16.28999089631971 0.0 0.0 0.0 16.28999089631971 0.0 0.0 0.0 34.385447050020396" Properties=species:S:1:pos:R:3:initial_magmoms:R:1 pbc="T T T"
Si      -1.24607097      -1.55084058      -1.27552887       0.00000000
Si       0.40886271      -0.48703842       2.28852471       0.00000000
Si       1.64706561       1.28128995      -1.24623245       0.00000000
Si      -2.46036015      -0.02782332      -2.68877153       0.00000000
Si       2.42654211      -1.67879853       2.21473350       0.00000000
Si       0.89655273       1.68142515       3.17666692       0.00000000
Si       0.25787070       2.69615043      -2.66834657       0.00000000
Si      -3.46478526      -0.98715771       1.25300639       0.00000000
Si       0.25998840      -2.73592179      -2.69888086       0.00000000
Si       2.97426078      -0.04636134      -2.69884648       0.00000000
