10
Lattice="16.28999089631971 0.0 0.0 0.0 16.28999089631971 0.0 0.0 0.0 34.385447050020396" Properties=species:S:1:pos:R:3:initial_magmoms:R:1 pbc="T T T"
Si      -1.96779942       0.38698524      -1.11522383       0.00000000
Si       0.44572698      -2.02331574      -1.04139823       0.00000000
Si       0.92031984       2.08321637      -0.58991706       0.00000000
Si      -0.36958752       0.12241935       2.32236001       0.00000000
Si      -2.41730568       2.18386088       0.33364218       0.00000000
Si       2.99731113       1.75814290       0.37779312       0.00000000
Si       2.57336388      -2.40658686      -0.04164080       0.00000000
Si       0.20691558      -1.24049979      -3.34298942       0.00000000
Si      -2.57518836       1.02381577       2.40983663       0.00000000
Si       3.65155011      -0.37432791      -0.39808054       0.00000000
