10
Lattice="16.28999089631971 0.0 0.0 0.0 16.28999089631971 0.0 0.0 0.0 34.385447050020396" Properties=species:S:1:pos:R:3:initial_magmoms:R:1 pbc="T T T"
Si      -1.31383737       1.99288602      -0.03125639       0.00000000
Si       2.27672298       0.05926302      -0.72563649       0.00000000
Si      -0.81011799      -1.40894165      -1.75802573       0.00000000
Si       0.81972909      -0.49790385       2.19551202       0.00000000
Si       2.28516120       1.33952670       2.34656737       0.00000000
Si      -3.05212698      -1.80962678      -1.10738394       0.00000000
Si      -2.66874183       1.74817764       1.91547678       0.00000000
Si       0.00068418      -3.52482110      -1.25658248       0.00000000
Si      -2.83188618       1.92301821      -1.88501126       0.00000000
Si       2.07945108      -2.48149547       2.19650920       0.00000000
