10
Lattice="16.28999089631971 0.0 0.0 0.0 16.28999089631971 0.0 0.0 0.0 34.385447050020396" Properties=species:S:1:pos:R:3:initial_magmoms:R:1 pbc="T T T"
Si       1.34275212       1.35627282       1.38322415       0.00000000
Si      -1.37002158      -1.35896067       1.38274275       0.00000000
Si      -1.41537294       1.34975682      -1.40462567       0.00000000
Si       1.63172043      -1.10972367      -1.48913483       0.00000000
Si       2.71083519      -2.68907175       0.02458905       0.00000000
Si      -2.72065806       2.70477531       0.03346050       0.00000000
Si       2.69884575       2.73121398       0.01217246       0.00000000
Si      -2.72479572      -2.71551042      -0.00357953       0.00000000
Si       2.70624141      -0.00024435       2.74509493       0.00000000
Si      -0.01130526      -2.71660185       2.74506054       0.00000000
