10
Lattice="16.28999089631971 0.0 0.0 0.0 16.28999089631971 0.0 0.0 0.0 34.385447050020396" Properties=species:S:1:pos:R:3:initial_magmoms:R:1 pbc="T T T"
Si      -1.35713619      -1.35795069      -1.35664419       0.00000000
Si       1.35749457       1.35711990      -1.35805399       0.00000000
Si      -1.35738054       1.35786924       1.35760698       0.00000000
Si       1.35791811      -1.35729909       1.35771014       0.00000000
Si      -2.71410948       0.00177561       2.71462941       0.00000000
Si       0.00032580      -2.71484253      -2.71483572       0.00000000
Si       2.71484253      -2.71490443       0.00034385       0.00000000
Si       0.00032580       2.71511946       2.71497326       0.00000000
Si       2.71599912       0.00213399       2.71449186       0.00000000
Si      -2.71484253      -2.71588998       0.00085964       0.00000000
