10
Lattice="16.28999089631971 0.0 0.0 0.0 16.28999089631971 0.0 0.0 0.0 34.385447050020396" Properties=species:S:1:pos:R:3:initial_magmoms:R:1 pbc="T T T"
Si       1.34887716       1.35285192       1.36255849       0.00000000
Si       1.35477414      -1.35293337      -1.35973888       0.00000000
Si      -1.36089918       1.36005210      -1.35925748       0.00000000
Si      -1.35106002      -1.36028016       1.37772248       0.00000000
Si      -2.50636311       0.13734099       2.80698877       0.00000000
Si       2.70932022      -2.71334385      -0.00058455       0.00000000
Si       2.71107954       0.00263898      -2.71679569       0.00000000
Si      -0.00330687      -2.71236645      -2.71652061       0.00000000
Si       2.71104696       2.71878471       0.00030947       0.00000000
Si      -0.00345348       2.71741635      -2.71665815       0.00000000
