10
Lattice="16.28999089631971 0.0 0.0 0.0 16.28999089631971 0.0 0.0 0.0 34.385447050020396" Properties=species:S:1:pos:R:3:initial_magmoms:R:1 pbc="T T T"
Si       0.87174306      -0.87254127       2.03692625       0.00000000
Si       1.97058501       0.77726106      -1.14290413       0.00000000
Si      -1.15911495      -2.03607081      -0.55415617       0.00000000
Si      -1.77306876       1.67940126       0.19465612       0.00000000
Si      -2.51401941      -2.28077919       1.39257700       0.00000000
Si      -1.74728169       2.28472137       2.43724185       0.00000000
Si       0.60059601       2.78778915       2.51223655       0.00000000
Si      -0.93952575      -1.92792150       3.14351933       0.00000000
Si       1.56486627      -0.14708241      -3.50071555       0.00000000
Si      -0.98614773       3.63183921      -0.87094948       0.00000000
