10
Lattice="16.28999089631971 0.0 0.0 0.0 16.28999089631971 0.0 0.0 0.0 34.385447050020396" Properties=species:S:1:pos:R:3:initial_magmoms:R:1 pbc="T T T"
Si       0.38133261      -0.96308109       2.13069542       0.00000000
Si       1.88776665       0.73723653      -1.28983323       0.00000000
Si      -1.10462490       2.03426262       0.76772431       0.00000000
Si      -0.74886759      -1.99453131      -1.33604729       0.00000000
Si       0.76312134       2.48085297      -2.45460651       0.00000000
Si       2.63603151      -1.59953139       1.90877162       0.00000000
Si       0.28471662      -3.68347851      -0.07915534       0.00000000
Si      -2.11978512       1.28998881       2.77793305       0.00000000
Si      -2.70327663       2.44998342      -0.88336263       0.00000000
Si      -0.50419179      -3.21799176       2.11852296       0.00000000
