10
Lattice="16.28999089631971 0.0 0.0 0.0 16.28999089631971 0.0 0.0 0.0 34.385447050020396" Properties=species:S:1:pos:R:3:initial_magmoms:R:1 pbc="T T T"
Si      -1.94207751      -1.22872212      -0.03517633       0.00000000
Si       0.50010300       0.24317712       2.29081791       0.00000000
Si       0.11824911       1.12471047      -2.11309006       0.00000000
Si       0.54418374      -2.38951494      -0.29760621       0.00000000
Si      -2.13644979       1.76116077      -1.89116626       0.00000000
Si       2.08798704      -1.56830346       2.14850709       0.00000000
Si      -3.02197419      -0.49374990      -1.90333871       0.00000000
Si       2.28648069       1.94615001      -2.15142985       0.00000000
Si       0.03184695      -0.56830923      -3.71504016       0.00000000
Si      -1.36953288      -0.63289908       3.46038969       0.00000000
