10
Lattice="16.28999089631971 0.0 0.0 0.0 16.28999089631971 0.0 0.0 0.0 34.385447050020396" Properties=species:S:1:pos:R:3:initial_magmoms:R:1 pbc="T T T"
Si       1.35646830       1.35640314       1.35795083       0.00000000
Si       1.35747828      -1.35695700      -1.35746944       0.00000000
Si      -1.35744570      -1.35736425       1.35740067       0.00000000
Si      -1.35788553       1.35803214      -1.35695366       0.00000000
Si      -2.71461447       0.00302994      -2.71387293       0.00000000
Si       2.71453302      -2.71477737      -0.00013754       0.00000000
Si       2.71456560       2.71505430      -0.00003439       0.00000000
Si      -2.71515204      -2.71461447       0.00003439       0.00000000
Si      -0.00027693      -2.71536381      -2.71562658       0.00000000
Si       2.71450044       0.00136836       2.71696762       0.00000000
