10
Lattice="16.28999089631971 0.0 0.0 0.0 16.28999089631971 0.0 0.0 0.0 34.385447050020396" Properties=species:S:1:pos:R:3:initial_magmoms:R:1 pbc="T T T"
Si      -1.35622395       1.35224919      -1.35561262       0.00000000
Si       1.35731538       1.35565380       1.35767575       0.00000000
Si      -1.35773892      -1.36026387       1.35719435       0.00000000
Si       1.35392706      -1.36078515      -1.36331497       0.00000000
Si       0.03264516       2.67920001      -2.70006028       0.00000000
Si      -2.70948312      -0.01228266      -2.71307862       0.00000000
Si      -2.71285515       2.71125873       0.00013754       0.00000000
Si      -0.00060273       2.71265967       2.71404485       0.00000000
Si       2.71593396       2.71210581       0.00072209       0.00000000
Si       2.71471221      -0.00324171       2.71411362       0.00000000
