10
Lattice="16.28999089631971 0.0 0.0 0.0 16.28999089631971 0.0 0.0 0.0 34.385447050020396" Properties=species:S:1:pos:R:3:initial_magmoms:R:1 pbc="T T T"
Si       1.57097502      -0.94121991      -1.43366763       0.00000000
Si      -1.94838174      -0.42142230      -1.33838550       0.00000000
Si       0.95057037       2.23497171      -0.09823928       0.00000000
Si      -0.36163800      -1.26547236       2.04480052       0.00000000
Si      -2.02817016       2.81769759       0.66443036       0.00000000
Si       1.12269051       0.14305878      -3.41712448       0.00000000
Si      -2.73530277      -2.37386025      -0.27277990       0.00000000
Si      -2.95969752       1.75267368      -1.18836171       0.00000000
Si      -0.48444831       0.37022283       3.66834470       0.00000000
Si      -2.09877102       1.66746069       2.62952538       0.00000000
