10
Lattice="16.28999089631971 0.0 0.0 0.0 16.28999089631971 0.0 0.0 0.0 34.385447050020396" Properties=species:S:1:pos:R:3:initial_magmoms:R:1 pbc="T T T"
Si       1.12464531      -1.74361644       1.16477328       0.00000000
Si       1.45233495       0.56218419      -1.82201709       0.00000000
Si      -2.33870643      -0.29551689      -0.56237430       0.00000000
Si      -0.14555115       2.35408419       0.57898248       0.00000000
Si      -0.16198776       1.85942205      -2.86083641       0.00000000
Si      -1.96703379       0.36176832      -2.89002967       0.00000000
Si      -0.76312134      -2.48085297       2.45460651       0.00000000
Si      -1.86774624      -0.44659035       3.22233081       0.00000000
Si       3.12248349      -0.70744212       1.95783968       0.00000000
Si      -1.09491606       3.32539173      -1.36740684       0.00000000
