10
Lattice="16.28999089631971 0.0 0.0 0.0 16.28999089631971 0.0 0.0 0.0 34.385447050020396" Properties=species:S:1:pos:R:3:initial_magmoms:R:1 pbc="T T T"
Si       1.29044493      -1.35897696       1.31562576       0.00000000
Si      -0.83799018      -1.78261470      -1.28458669       0.00000000
Si       1.63867626       1.06293879      -1.33013849       0.00000000
Si      -1.44686151       1.38485242       1.28904924       0.00000000
Si      -2.09846151      -0.54807705      -2.89202544       0.00000000
Si       2.58416415      -2.66507658      -0.25513328       0.00000000
Si       2.61636948       0.02897991       2.65690996       0.00000000
Si       3.34220301      -0.73803474      -1.58575596       0.00000000
Si      -0.09842418      -2.68592778       2.66007342       0.00000000
Si      -2.69529453      -2.66261679      -0.09224589       0.00000000
