10
Lattice="16.28999089631971 0.0 0.0 0.0 16.28999089631971 0.0 0.0 0.0 34.385447050020396" Properties=species:S:1:pos:R:3:initial_magmoms:R:1 pbc="T T T"
Si       1.80662616      -1.16709705       0.95013920       0.00000000
Si       0.91808811       1.92867314      -1.08771545       0.00000000
Si      -1.45790613      -1.63458747      -1.12072550       0.00000000
Si      -1.09162548       0.67637709       2.11143956       0.00000000
Si      -3.13937622       1.41997554       0.99814131       0.00000000
Si       2.90177028      -2.01489381      -0.93136474       0.00000000
Si       0.79667874      -3.32584785       1.34388718       0.00000000
Si      -1.40010921      -3.38322123       0.44333182       0.00000000
Si      -1.01977029       2.88506393      -2.10992660       0.00000000
Si       1.76171463      -1.95014106      -3.01113528       0.00000000
