10
Lattice="16.28999089631971 0.0 0.0 0.0 16.28999089631971 0.0 0.0 0.0 34.385447050020396" Properties=species:S:1:pos:R:3:initial_magmoms:R:1 pbc="T T T"
Si      -0.96855453       1.09599120       1.84068839       0.00000000
Si      -0.94936491       0.97130754      -1.94638932       0.00000000
Si       2.25106623       0.78043761      -0.04972138       0.00000000
Si       0.14555115      -2.35408419      -0.57898248       0.00000000
Si       1.59788610      -1.79190000      -2.40099957       0.00000000
Si      -0.01643661      -0.49466214      -3.43981889       0.00000000
Si      -0.91075761      -0.65264256       3.40474571       0.00000000
Si      -2.19315528      -2.64960108      -1.14135678       0.00000000
Si       0.12882132       3.00356649      -2.30282906       0.00000000
Si       2.20490037       2.87021655      -1.17202862       0.00000000
