10
Lattice="16.28999089631971 0.0 0.0 0.0 16.28999089631971 0.0 0.0 0.0 34.385447050020396" Properties=species:S:1:pos:R:3:initial_magmoms:R:1 pbc="T T T"
Si      -1.09271691      -1.45802016       1.56336961       0.00000000
Si       1.39699782       1.38894960       1.40409613       0.00000000
Si      -2.04775074       0.74359845      -1.11329824       0.00000000
Si       1.09162548      -0.67637709      -2.11143956       0.00000000
Si       2.89825164      -1.84347414      -1.16130035       0.00000000
Si      -3.13199685      -1.39743765      -1.20531375       0.00000000
Si      -1.94932656      -3.09405744      -0.00099718       0.00000000
Si      -2.60074737       0.39412026       2.58176396       0.00000000
Si      -3.23977149       2.17982096       0.38374180       0.00000000
Si       2.00971359       1.25229605      -3.19915501       0.00000000
