10
Lattice="16.28999089631971 0.0 0.0 0.0 16.28999089631971 0.0 0.0 0.0 34.385447050020396" Properties=species:S:1:pos:R:3:initial_magmoms:R:1 pbc="T T T"
Si       1.35777582       1.33736013       1.38027044       0.00000000
Si      -1.36511139      -1.37388231       1.37841362       0.00000000
Si       1.52210445      -1.27263996      -1.38239890       0.00000000
Si      -1.04623464       1.72921608      -1.35119753       0.00000000
Si      -2.21277783       0.29398563      -3.02644854       0.00000000
Si       2.71366745       2.68543908      -0.01093458       0.00000000
Si      -2.71333695      -2.69993718       0.01324528       0.00000000
Si       2.70783563      -2.72740212       0.02832675       0.00000000
Si      -0.00444027       2.70352098       2.73392309       0.00000000
Si       2.70827546      -0.01169622       2.73633007       0.00000000
