10
Lattice="16.28999089631971 0.0 0.0 0.0 16.28999089631971 0.0 0.0 0.0 34.385447050020396" Properties=species:S:1:pos:R:3:initial_magmoms:R:1 pbc="T T T"
Si      -1.35379674       1.32151843      -1.40014180       0.00000000
Si      -1.76537988      -1.02664501       1.23763609       0.00000000
Si       1.36200690      -1.39751944      -1.39182052       0.00000000
Si       0.80658306       1.89837828       1.26830792       0.00000000
Si      -2.68232769       2.62126332       0.10535707       0.00000000
Si       1.63326798       1.02816974       3.26586282       0.00000000
Si       2.66421321       2.71113525       0.04126256       0.00000000
Si       0.00198738       2.67697512      -2.75994945       0.00000000
Si      -2.70941796      -0.03593608      -2.75867719       0.00000000
Si      -3.54573027       0.71558582       1.39281770       0.00000000
