10
Lattice="16.28999089631971 0.0 0.0 0.0 16.28999089631971 0.0 0.0 0.0 34.385447050020396" Properties=species:S:1:pos:R:3:initial_magmoms:R:1 pbc="T T T"
Si       0.99768105      -2.13423777      -0.06354434       0.00000000
Si      -2.27672298      -0.05926302       0.72563649       0.00000000
Si       1.54745226       1.29787317       1.30179937       0.00000000
Si       2.45392560      -1.15394776      -1.60016206       0.00000000
Si      -1.45699389      -0.55716687       2.92114852       0.00000000
Si       0.00843822       1.28026368       3.07220387       0.00000000
Si      -3.08684097      -1.46820467      -1.03238924       0.00000000
Si      -0.16645122       1.58877999      -3.42424227       0.00000000
Si      -0.19727190      -2.54075849       2.92214569       0.00000000
Si       1.62724068      -0.28373922      -3.59771695       0.00000000
