10
Lattice="16.28999089631971 0.0 0.0 0.0 16.28999089631971 0.0 0.0 0.0 34.385447050020396" Properties=species:S:1:pos:R:3:initial_magmoms:R:1 pbc="T T T"
Si       1.45624455       0.98029001      -1.53661772       0.00000000
Si       0.79439814      -1.08100817       1.92978114       0.00000000
Si      -0.99768105       2.13423777       0.06354434       0.00000000
Si      -1.14424218      -1.58855570      -1.35657542       0.00000000
Si      -1.19495295      -0.40652072       2.98569004       0.00000000
Si       2.59059921      -1.08584630      -1.67288732       0.00000000
Si       2.72328468       0.21712143       2.28137253       0.00000000
Si      -3.27371985      -1.44984635      -0.46740164       0.00000000
Si      -2.67401979      -1.79234360       1.79584975       0.00000000
Si       1.35988920      -3.14511407      -1.47125095       0.00000000
