10
Lattice="16.28999089631971 0.0 0.0 0.0 16.28999089631971 0.0 0.0 0.0 34.385447050020396" Properties=species:S:1:pos:R:3:initial_magmoms:R:1 pbc="T T T"
Si      -1.51874928       1.77254422      -0.53414383       0.00000000
Si      -0.56348739      -1.69218306       1.60174379       0.00000000
Si      -0.17920629      -1.34968581      -2.05301865       0.00000000
Si       2.15690093       1.23832996       0.32937838       0.00000000
Si      -0.64839087       2.21429644      -2.66098808       0.00000000
Si      -1.33208217       0.08707168      -3.48596418       0.00000000
Si       0.03715749      -3.78074025       0.29337680       0.00000000
Si       2.00681301      -2.13898518      -2.42108068       0.00000000
Si       3.45721760       0.08250559       1.94580477       0.00000000
Si       3.21809669       1.59099217      -1.75420895       0.00000000
