10
Lattice="16.28999089631971 0.0 0.0 0.0 16.28999089631971 0.0 0.0 0.0 34.385447050020396" Properties=species:S:1:pos:R:3:initial_magmoms:R:1 pbc="T T T"
Si       1.34822556       1.32605487       1.36516834       0.00000000
Si       1.42438131      -1.29394728      -1.32499924       0.00000000
Si      -1.36599795      -1.38709350       1.35976982       0.00000000
Si      -1.07911476       1.57934808      -1.51372387       0.00000000
Si      -1.98296541      -0.36870786      -2.63368086       0.00000000
Si      -0.39508137      -2.18018844      -2.77599168       0.00000000
Si      -2.71083519       2.68907175      -0.02458905       0.00000000
Si      -0.00459378       2.68882740       2.72050588       0.00000000
Si       2.71333695       2.69993718      -0.01324528       0.00000000
Si       2.71003698      -0.02580336       2.72432267       0.00000000
