10
Lattice="16.28999089631971 0.0 0.0 0.0 16.28999089631971 0.0 0.0 0.0 34.385447050020396" Properties=species:S:1:pos:R:3:initial_magmoms:R:1 pbc="T T T"
Si       1.81033118       0.97684614       1.10824358       0.00000000
Si      -1.19435022       1.49374413      -1.37810072       0.00000000
Si       1.47357452      -1.22437269      -1.38518412       0.00000000
Si      -1.71621666      -0.88632261       1.46502718       0.00000000
Si      -3.25234737       1.06948737       1.25706388       0.00000000
Si      -2.56852575      -2.60485245       0.03785840       0.00000000
Si       0.78377121       2.56616370       2.53833512       0.00000000
Si      -2.56376907       0.13533732      -2.72549521       0.00000000
Si       0.15119092      -2.58092244      -2.73134074       0.00000000
Si      -2.43429615       2.88709299       0.00955916       0.00000000
