10
Lattice="16.28999089631971 0.0 0.0 0.0 16.28999089631971 0.0 0.0 0.0 34.385447050020396" Properties=species:S:1:pos:R:3:initial_magmoms:R:1 pbc="T T T"
Si      -1.35500220      -1.35689184      -1.35867293       0.00000000
Si      -1.35770634       1.35716877       1.35688488       0.00000000
Si       1.35780057      -1.35777150       1.35654103       0.00000000
Si       1.35848826       1.35773892      -1.35850100       0.00000000
Si       2.71530095       0.00076563       2.71359784       0.00000000
Si       0.00017919       2.71391400       2.71514519       0.00000000
Si       2.71404173       2.71526607      -0.00058455       0.00000000
Si      -2.71479366      -2.71484253      -0.00055017       0.00000000
Si       0.00120546      -2.71578735       2.71394170       0.00000000
Si       2.71500936      -2.71500543       0.00120349       0.00000000
