10
Lattice="16.28999089631971 0.0 0.0 0.0 16.28999089631971 0.0 0.0 0.0 34.385447050020396" Properties=species:S:1:pos:R:3:initial_magmoms:R:1 pbc="T T T"
Si       0.95705379       1.51632207      -1.47654631       0.00000000
Si      -0.20167020       1.27376397       1.94116273       0.00000000
Si      -1.60539579      -1.05813324      -1.41406791       0.00000000
Si       1.61267157      -1.37906253       1.11470805       0.00000000
Si      -2.25240201       0.60185034       2.78102774       0.00000000
Si       2.34302395       0.25565526      -2.80984276       0.00000000
Si       2.32026193       2.84066649      -0.19568769       0.00000000
Si      -0.36544986      -2.45148210      -2.80172779       0.00000000
Si      -2.90576133      -1.57086099       1.77480584       0.00000000
Si      -2.42344701      -2.87573886      -0.16656320       0.00000000
