10
Lattice="16.28999089631971 0.0 0.0 0.0 16.28999089631971 0.0 0.0 0.0 34.385447050020396" Properties=species:S:1:pos:R:3:initial_magmoms:R:1 pbc="T T T"
Si      -2.12947767       0.13870935       0.88917377       0.00000000
Si       1.14424218       1.58855570       1.35657542       0.00000000
Si       0.45339957      -2.22847200       0.72518948       0.00000000
Si      -0.79816113       0.51403095      -2.20826903       0.00000000
Si       2.50413138      -1.55655837      -0.11467553       0.00000000
Si      -1.52977761      -0.20378790       3.15242516       0.00000000
Si       2.60048673       2.56884570      -0.18004230       0.00000000
Si      -2.94027984       2.25458880       0.38773052       0.00000000
Si       3.73484139       0.50270940      -0.31631190       0.00000000
Si      -0.37207989      -2.30927040       3.03785279       0.00000000
