10
Lattice="16.28999089631971 0.0 0.0 0.0 16.28999089631971 0.0 0.0 0.0 34.385447050020396" Properties=species:S:1:pos:R:3:initial_magmoms:R:1 pbc="T T T"
Si       1.36320814       1.32434442       1.28085862       0.00000000
Si       1.38597016      -1.26066681      -1.33329645       0.00000000
Si      -0.95705379      -1.51632207       1.47654631       0.00000000
Si      -1.33362972       1.45715679      -1.30534107       0.00000000
Si      -1.15872399      -0.24255810       3.41770903       0.00000000
Si      -2.56244958      -2.57445531       0.06247839       0.00000000
Si       0.07198602       1.81670967       3.21607266       0.00000000
Si       0.02716682      -2.61773784      -2.67653031       0.00000000
Si      -2.69483841       0.10656918      -2.67223213       0.00000000
Si       2.66259140      -2.72793969      -0.02905572       0.00000000
