10
Lattice="16.28999089631971 0.0 0.0 0.0 16.28999089631971 0.0 0.0 0.0 34.385447050020396" Properties=species:S:1:pos:R:3:initial_magmoms:R:1 pbc="T T T"
Si       0.56348739       1.69218306      -1.60174379       0.00000000
Si       1.14105001       0.16454529       2.11821349       0.00000000
Si      -1.94779530      -1.47181779       0.46918969       0.00000000
Si       0.60064488      -2.08855719      -1.30836699       0.00000000
Si       0.25277193      -3.22701642       0.75524238       0.00000000
Si       0.38428110       0.34249725      -3.65476244       0.00000000
Si       2.85825059      -1.58089563      -1.89886860       0.00000000
Si      -0.50836203      -1.87799265      -3.37128865       0.00000000
Si      -2.39067153      -1.34514675       2.83449714       0.00000000
Si       2.47955370       2.15701659       2.21796573       0.00000000
