10
Lattice="16.28999089631971 0.0 0.0 0.0 16.28999089631971 0.0 0.0 0.0 34.385447050020396" Properties=species:S:1:pos:R:3:initial_magmoms:R:1 pbc="T T T"
Si      -0.44287623       0.12667104       2.36530745       0.00000000
Si       1.94779530       1.47181779      -0.46918969       0.00000000
Si      -1.89257220      -0.06882525      -1.66563199       0.00000000
Si       2.20056723      -1.75519863       0.28605269       0.00000000
Si       2.54844018      -0.61673940      -1.77755668       0.00000000
Si       0.97375104      -3.30007707      -1.03596533       0.00000000
Si      -0.79742808      -0.91662201      -3.54713593       0.00000000
Si       3.08884531       1.63636308       1.64902381       0.00000000
Si      -2.90251962      -2.22757605      -1.27188401       0.00000000
Si      -2.14640298       1.92764457       2.62092492       0.00000000
