10
Lattice="16.28999089631971 0.0 0.0 0.0 16.28999089631971 0.0 0.0 0.0 34.385447050020396" Properties=species:S:1:pos:R:3:initial_magmoms:R:1 pbc="T T T"
Si      -0.18456570       0.63439776       2.22229830       0.00000000
Si      -2.14922767      -0.16897617      -1.10226051       0.00000000
Si       1.16882379      -2.12488389       0.29292979       0.00000000
Si       1.06652259       2.05508124      -0.97568761       0.00000000
Si      -2.54180038      -2.31107859      -0.20524685       0.00000000
Si      -0.48177675      -3.40524205      -0.73512688       0.00000000
Si      -1.33100703      -1.14510555      -3.16614496       0.00000000
Si       1.83435174       1.99376568       2.55710958       0.00000000
Si      -0.41806656      -1.49770260       3.43727436       0.00000000
Si       3.44746899       1.22645781      -0.99635327       0.00000000
