10
Lattice="16.28999089631971 0.0 0.0 0.0 16.28999089631971 0.0 0.0 0.0 34.385447050020396" Properties=species:S:1:pos:R:3:initial_magmoms:R:1 pbc="T T T"
Si      -1.96666142       0.94697028      -0.91867650       0.00000000
Si       1.60147479       1.62370575      -0.70139474       0.00000000
Si      -0.50741721      -0.31229559       2.31063456       0.00000000
Si       0.18739039      -2.23085034      -0.83738926       0.00000000
Si      -3.07381127      -1.03014702      -1.42606844       0.00000000
Si       0.01574266      -1.69385049      -3.15613879       0.00000000
Si      -2.07088484      -2.99810934      -0.57389343       0.00000000
Si      -2.96427731       2.13519546       0.80939949       0.00000000
Si       3.33463305       0.43815213      -1.90705234       0.00000000
Si      -0.40103536       1.70974953       3.49631421       0.00000000
