10
Lattice="16.28999089631971 0.0 0.0 0.0 16.28999089631971 0.0 0.0 0.0 34.385447050020396" Properties=species:S:1:pos:R:3:initial_magmoms:R:1 pbc="T T T"
Si       0.87469155       1.95359454      -1.15201628       0.00000000
Si       0.48930273      -1.15096995       2.09177107       0.00000000
Si      -1.55319937      -1.44111114      -1.20785827       0.00000000
Si      -0.94250030       0.74148822       2.50855731       0.00000000
Si       2.19704859      -0.48923757      -2.43431908       0.00000000
Si       0.06649578       3.53406663       0.34846232       0.00000000
Si      -0.02868669      -3.34482570       1.30847015       0.00000000
Si      -3.36754115       1.21171536      -0.38140359       0.00000000
Si       2.77573455      -0.90673398       2.12725687       0.00000000
Si      -2.20930586      -3.10528125       0.38195376       0.00000000
