10
Lattice="16.28999089631971 0.0 0.0 0.0 16.28999089631971 0.0 0.0 0.0 34.385447050020396" Properties=species:S:1:pos:R:3:initial_magmoms:R:1 pbc="T T T"
Si      -0.28352745      -2.38830948       0.21845087       0.00000000
Si       2.33023563      -0.14112027       0.63083576       0.00000000
Si      -0.28082331       0.84207897      -2.35990894       0.00000000
Si      -1.57738676       1.21404483       1.70747910       0.00000000
Si      -1.22709312       2.98421397      -1.99879277       0.00000000
Si       1.42687368      -3.43231929      -1.20325062       0.00000000
Si       3.51670149       1.77388326      -0.13606329       0.00000000
Si       3.33094662      -2.08396341      -0.55436249       0.00000000
Si       0.18096561       3.97013364      -0.26363337       0.00000000
Si      -2.50039771      -3.11054292      -0.29244839       0.00000000
