10
Lattice="16.28999089631971 0.0 0.0 0.0 16.28999089631971 0.0 0.0 0.0 34.385447050020396" Properties=species:S:1:pos:R:3:initial_magmoms:R:1 pbc="T T T"
Si      -1.34811153      -1.35353610      -1.38160803       0.00000000
Si       1.36868580       1.35902876      -1.37256466       0.00000000
Si       1.21428918      -1.52301726       1.41324266       0.00000000
Si      -1.45028241       1.37628787       1.34643170       0.00000000
Si       2.46036015       0.02782332       2.68877153       0.00000000
Si      -2.72472567      -0.13431105       2.57554019       0.00000000
Si      -2.70196366      -2.71932228      -0.03861488       0.00000000
Si       2.72034855      -2.70809847      -0.01010933       0.00000000
Si       2.71823085       2.72397375       0.02042497       0.00000000
Si      -2.70878917      -0.00017919      -2.73715189       0.00000000
