10
Lattice="16.28999089631971 0.0 0.0 0.0 16.28999089631971 0.0 0.0 0.0 34.385447050020396" Properties=species:S:1:pos:R:3:initial_magmoms:R:1 pbc="T T T"
Si       1.35692442      -1.35875216      -1.36077044       0.00000000
Si      -1.35917081       1.35835794      -1.36221463       0.00000000
Si      -1.38823706      -1.34905472       1.35540631       0.00000000
Si       1.37497374       1.36353816       1.35585332       0.00000000
Si      -0.02342502       2.72811888       2.61425823       0.00000000
Si      -0.10046043      -2.69766912       2.72253806       0.00000000
Si      -2.71377458      -2.71266695      -0.00529536       0.00000000
Si       2.71619460       2.71148679      -0.00158173       0.00000000
Si      -2.71507434       2.71490769      -0.00763357       0.00000000
Si       0.00048870       2.71487511      -2.71837742       0.00000000
