10
Lattice="10.86 0.0 0.0 0.0 10.86 0.0 0.0 0.0 10.86" Properties=species:S:1:pos:R:3:initial_magmoms:R:1 pbc="T T T"
Si      -1.16895954       1.19003880      -1.24563114       0.00000000
Si      -1.49534598      -1.21868748       1.43666940       0.00000000
Si       1.54604046       1.19003880       1.46936886       0.00000000
Si       1.54604046      -1.52496120      -1.24563114       0.00000000
Si      -2.52645954       2.54753880       0.11186886       0.00000000
Si      -2.52645954      -0.16746120      -2.60313114       0.00000000
Si       0.18854046       2.54753880      -2.60313114       0.00000000
Si       0.18854046       2.54753880       2.82686886       0.00000000
Si       2.90354046       2.54753880       0.11186886       0.00000000
Si       0.18854046      -2.88246120      -2.60313114       0.00000000
