10
Lattice="10.86 0.0 0.0 0.0 10.86 0.0 0.0 0.0 10.86" Properties=species:S:1:pos:R:3:initial_magmoms:R:1 pbc="T T T"
Si       1.35239580       1.30670778       1.16034756       0.00000000
Si      -1.36260420      -1.40829222       1.16034756       0.00000000
Si      -1.36260420       1.30670778      -1.55465244       0.00000000
Si       2.49734388      -2.47993530      -0.38705040       0.00000000
Si      -0.00510420       2.66420778       2.51784756       0.00000000
Si       2.70989580      -0.05079222       2.51784756       0.00000000
Si      -2.72010420      -0.05079222       2.51784756       0.00000000
Si      -0.00510420      -2.76579222       2.51784756       0.00000000
Si      -2.72010420       2.66420778      -0.19715244       0.00000000
Si       2.74627680       2.67173376      -0.20360328       0.00000000
