10
Lattice="10.86 0.0 0.0 0.0 10.86 0.0 0.0 0.0 10.86" Properties=species:S:1:pos:R:3:initial_magmoms:R:1 pbc="T T T"
Si       1.17094692      -1.20581838      -1.32342132       0.00000000
Si       1.17094692       1.50918162       1.39157868       0.00000000
Si      -1.54405308       1.50918162      -1.32342132       0.00000000
Si       2.52844692      -2.56331838       0.03407868       0.00000000
Si       2.52844692       0.15168162      -2.68092132       0.00000000
Si       2.52844692       0.15168162       2.74907868       0.00000000
Si      -0.48077220      -2.94157218      -2.31010662       0.00000000
Si       2.52844692       2.86668162       0.03407868       0.00000000
Si      -0.06715824      -2.69838420       2.81033994       0.00000000
Si      -0.18655308       2.86668162      -2.68092132       0.00000000
