10
Lattice="16.28999089631971 0.0 0.0 0.0 16.28999089631971 0.0 0.0 0.0 34.33025523377368" Properties=species:S:1:pos:R:3:initial_magmoms:R:1 pbc="T T T"
Si      -1.35083196       1.35303111       1.36514336       0.00000000
Si       1.36567215      -1.36682874       1.36150435       0.00000000
Si      -1.35733167      -1.37984445      -1.36504037       0.00000000
Si       1.37648871       1.37106414      -1.36065296       0.00000000
Si      -2.70150102       2.69993718       0.00346736       0.00000000
Si       2.71889874       2.70412371       0.00563017       0.00000000
Si      -2.69917155      -2.72825083       0.01198127       0.00000000
Si       0.00697212       2.70842427       2.72081157       0.00000000
Si      -2.70853830      -0.00630423       2.72084590       0.00000000
Si       2.72135853      -2.71950310       0.00988712       0.00000000
