10
Lattice="16.28999089631971 0.0 0.0 0.0 16.28999089631971 0.0 0.0 0.0 34.33025523377368" Properties=species:S:1:pos:R:3:initial_magmoms:R:1 pbc="T T T"
Si       1.05160095       1.14453540       1.77384528       0.00000000
Si      -0.22154400      -2.10913961       1.09111911       0.00000000
Si      -2.10725811       1.13712345      -0.32754515       0.00000000
Si       1.52432046      -0.06910218      -1.89132348       0.00000000
Si       0.05914899       3.22574580       1.50332272       0.00000000
Si      -1.08121617      -1.39502673       3.18488822       0.00000000
Si       3.25879821       1.34812782       1.07549884       0.00000000
Si      -1.88369415       2.02937562      -2.46896468       0.00000000
Si      -2.20503069       2.37537522       1.91950863       0.00000000
Si       0.43430769      -1.24115139      -3.57525777       0.00000000
