10
Lattice="16.28999089631971 0.0 0.0 0.0 16.28999089631971 0.0 0.0 0.0 34.33025523377368" Properties=species:S:1:pos:R:3:initial_magmoms:R:1 pbc="T T T"
Si      -1.56807377      -1.18066354       1.27852808       0.00000000
Si       1.18752471      -1.51620496      -1.35735039       0.00000000
Si      -1.52790915       1.22131392      -1.35295611       0.00000000
Si       1.40835195       1.35249566       1.47050297       0.00000000
Si      -1.36025735       0.95211352       3.12481024       0.00000000
Si      -3.29057090       0.54310094       1.45591261       0.00000000
Si       2.53990422      -0.15695725      -2.72541183       0.00000000
Si      -0.17829405       2.56019553      -2.72754030       0.00000000
Si      -2.86549945       2.56234581       0.20872807       0.00000000
Si       2.72921031       2.72910654       0.07957758       0.00000000
