10
Lattice="16.28999089631971 0.0 0.0 0.0 16.28999089631971 0.0 0.0 0.0 34.33025523377368" Properties=species:S:1:pos:R:3:initial_magmoms:R:1 pbc="T T T"
Si       1.26773667       1.36513458      -1.57043840       0.00000000
Si       0.69235758       1.75511718       1.55426884       0.00000000
Si       1.22632749      -1.06696242       1.85586030       0.00000000
Si      -1.42674336      -1.39347918      -1.48536798       0.00000000
Si       2.23453188      -2.48973102       0.11490343       0.00000000
Si       2.18588994       3.01400838      -0.07010242       0.00000000
Si       2.46474216      -0.19420938      -2.92507670       0.00000000
Si      -0.27227106       2.53092843      -2.91172222       0.00000000
Si      -2.74760172      -2.77009006      -0.09444258       0.00000000
Si       0.10236636      -2.94864964       2.87595008       0.00000000
