10
Lattice="16.28999089631971 0.0 0.0 0.0 16.28999089631971 0.0 0.0 0.0 34.33025523377368" Properties=species:S:1:pos:R:3:initial_magmoms:R:1 pbc="T T T"
Si       0.34518510       1.05922467       2.05964481       0.00000000
Si       1.69689672      -1.08331758      -1.33476107       0.00000000
Si      -0.53115174       1.90208556      -1.42371081       0.00000000
Si      -1.29937185      -1.79123211       1.04920185       0.00000000
Si       0.55970811      -3.17663145       1.59917284       0.00000000
Si      -1.78193052       2.16420795       2.38931844       0.00000000
Si       0.24193908      -1.64149443      -3.44408179       0.00000000
Si       2.11618503      -3.18151845      -0.19183757       0.00000000
Si      -2.38938462      -2.96328132      -0.63473244       0.00000000
Si       2.18747007       2.58750360       1.92527612       0.00000000
