10
Lattice="16.28999089631971 0.0 0.0 0.0 16.28999089631971 0.0 0.0 0.0 34.33025523377368" Properties=species:S:1:pos:R:3:initial_magmoms:R:1 pbc="T T T"
Si      -0.97968060      -0.76282812       1.97018012       0.00000000
Si       0.77353065       2.20929867       0.08397185       0.00000000
Si       2.04226101      -1.21930650      -0.29506871       0.00000000
Si      -1.83397707      -0.15009606      -1.62770130       0.00000000
Si       3.07806066       1.30873860      -0.53342380       0.00000000
Si       0.79148223      -0.95718411       3.51796054       0.00000000
Si      -2.72008791       2.10616668      -1.48962494       0.00000000
Si      -1.19651679       3.56747742      -0.18315201       0.00000000
Si       2.43445905       0.66220479      -2.83104608       0.00000000
Si      -2.13397371      -2.81414637       1.60020275       0.00000000
