10
Lattice="16.28999089631971 0.0 0.0 0.0 16.28999089631971 0.0 0.0 0.0 34.33025523377368" Properties=species:S:1:pos:R:3:initial_magmoms:R:1 pbc="T T T"
Si      -1.35518139      -1.35633798       1.35632048       0.00000000
Si      -1.35671265       1.35739683      -1.35724740       0.00000000
Si       1.35829278      -1.35832536      -1.35796833       0.00000000
Si       1.35946566       1.35874890       1.35735039       0.00000000
Si       0.00048870      -2.71371852      -2.71363654       0.00000000
Si      -0.00257382       2.71376739       2.71463212       0.00000000
Si       2.71243161      -0.00008145       2.71610832       0.00000000
Si      -2.71445157       2.71435383      -0.00006866       0.00000000
Si      -2.71296918      -0.00120546       2.71597100       0.00000000
Si       2.71477737       2.71480995      -0.00037763       0.00000000
