10
Lattice="16.28999089631971 0.0 0.0 0.0 16.28999089631971 0.0 0.0 0.0 34.33025523377368" Properties=species:S:1:pos:R:3:initial_magmoms:R:1 pbc="T T T"
Si      -1.35184194       1.35803214       1.35827731       0.00000000
Si       1.36389654      -1.35697329       1.35903257       0.00000000
Si      -1.36129014      -1.34082990      -1.37932177       0.00000000
Si       1.35785295       1.37251395      -1.36216349       0.00000000
Si       0.15410340      -2.52177345      -2.72975461       0.00000000
Si      -2.71362892       2.71217097      -0.00343303       0.00000000
Si      -2.71156987      -0.00105885       2.71586801       0.00000000
Si       2.71647153       2.71275741      -0.00030897       0.00000000
Si      -2.71286004      -2.71687878      -0.00264343       0.00000000
Si       0.00482184       2.71427238       2.71672627       0.00000000
