10
Lattice="16.28999089631971 0.0 0.0 0.0 16.28999089631971 0.0 0.0 0.0 34.33025523377368" Properties=species:S:1:pos:R:3:initial_magmoms:R:1 pbc="T T T"
Si       1.12733316       1.22543154       1.69481699       0.00000000
Si      -0.01819593       1.11702159      -2.12188560       0.00000000
Si      -1.94704596      -0.80282007       1.36421644       0.00000000
Si       1.57724667      -1.90465938      -0.48031487       0.00000000
Si       0.50544612      -3.35354085       1.27265760       0.00000000
Si       3.32959455       1.38303729       0.76810556       0.00000000
Si      -1.00553283      -0.49858803      -3.51205573       0.00000000
Si      -2.77869933      -2.48199327      -0.11236299       0.00000000
Si      -0.65800197       3.35720025      -1.76241330       0.00000000
Si      -0.64138617       2.66722686       2.71185137       0.00000000
