10
Lattice="16.28999089631971 0.0 0.0 0.0 16.28999089631971 0.0 0.0 0.0 34.33025523377368" Properties=species:S:1:pos:R:3:initial_magmoms:R:1 pbc="T T T"
Si      -1.55647692       0.00488700       1.79101042       0.00000000
Si      -0.98846091      -1.57319209      -1.47637345       0.00000000
Si       2.37338784      -0.13858229       0.37162522       0.00000000
Si      -0.41928831       2.09820087      -1.14292350       0.00000000
Si       2.87837784       1.05911064      -1.64081547       0.00000000
Si      -0.39133467       0.94592772       3.56595426       0.00000000
Si      -2.99820708      -0.34166320      -2.23215444       0.00000000
Si      -2.11618503       3.18151845       0.19183757       0.00000000
Si       1.74159648       3.10422240      -1.55368523       0.00000000
Si      -3.41555688       1.39028634       1.24103942       0.00000000
