10
Lattice="16.28999089631971 0.0 0.0 0.0 16.28999089631971 0.0 0.0 0.0 34.33025523377368" Properties=species:S:1:pos:R:3:initial_magmoms:R:1 pbc="T T T"
Si      -1.21167645      -1.98289164      -0.32757948       0.00000000
Si       2.19308735      -1.00511697       0.04232923       0.00000000
Si      -0.91702293       1.25027493      -1.88830241       0.00000000
Si      -0.62284182       0.88583505       2.23486653       0.00000000
Si       1.91866601      -1.43225706       2.66392630       0.00000000
Si       0.19987879      -3.70492383       0.20683990       0.00000000
Si      -3.22585350       1.54158248      -1.16056926       0.00000000
Si       3.59927273       0.68423978      -0.85032657       0.00000000
Si       0.78324812       3.68626361       0.09681137       0.00000000
Si      -0.94600284       3.18730091       1.89496249       0.00000000
