10
Lattice="16.28999089631971 0.0 0.0 0.0 16.28999089631971 0.0 0.0 0.0 34.33025523377368" Properties=species:S:1:pos:R:3:initial_magmoms:R:1 pbc="T T T"
Si       0.98846091       1.57319209       1.47637345       0.00000000
Si      -0.73813248      -2.11861780       0.80573154       0.00000000
Si      -2.00974617       1.23152889      -0.75578099       0.00000000
Si       1.41130044       0.22103901      -2.22521973       0.00000000
Si       0.02500515      -3.00184531      -1.33084742       0.00000000
Si      -0.56801601       1.57807909       3.26738387       0.00000000
Si      -0.88578504       3.11321611      -1.77587077       0.00000000
Si       0.56917260       3.67139296       0.33344996       0.00000000
Si       1.00711296      -3.11380648       2.00265656       0.00000000
Si      -2.40443658      -1.72816279       2.45550721       0.00000000
