10
Lattice="16.28999089631971 0.0 0.0 0.0 16.28999089631971 0.0 0.0 0.0 34.33025523377368" Properties=species:S:1:pos:R:3:initial_magmoms:R:1 pbc="T T T"
Si      -1.34241003      -1.33305957      -1.36628313       0.00000000
Si       1.36028016      -1.35242838       1.35872360       0.00000000
Si      -1.35399222       1.36469475       1.35872360       0.00000000
Si       1.35545832       1.38919491      -1.37391475       0.00000000
Si      -2.35571319       0.25466157      -2.87796870       0.00000000
Si      -2.71889874      -2.70412371      -0.00563017       0.00000000
Si       0.00166158      -2.70922248       2.71549038       0.00000000
Si      -2.71050939       2.71438641      -0.00030897       0.00000000
Si      -2.71192662       0.00430056       2.71518140       0.00000000
Si       2.71764441      -2.70962973      -0.00494356       0.00000000
