10
Lattice="16.28999089631971 0.0 0.0 0.0 16.28999089631971 0.0 0.0 0.0 34.33025523377368" Properties=species:S:1:pos:R:3:initial_magmoms:R:1 pbc="T T T"
Si      -0.64360161      -0.64653381      -2.29762228       0.00000000
Si       1.16012493       1.06176591      -1.98422120       0.00000000
Si      -2.30453001       0.90056007       0.61739566       0.00000000
Si       1.98275364      -0.17707230       1.78630717       0.00000000
Si      -1.03579965      -2.52804510       0.23835510       0.00000000
Si       2.17134297      -1.66777020      -1.80000495       0.00000000
Si      -1.30096827       1.43150004       2.64696715       0.00000000
Si       1.04599719       1.79312175       2.64974790       0.00000000
Si      -3.07806066      -1.30873860       0.53342380       0.00000000
Si       3.35398068       0.35627859      -1.72667548       0.00000000
