10
Lattice="16.28999089631971 0.0 0.0 0.0 16.28999089631971 0.0 0.0 0.0 34.33025523377368" Properties=species:S:1:pos:R:3:initial_magmoms:R:1 pbc="T T T"
Si      -2.34922977      -0.01308087      -0.21864952       0.00000000
Si       1.87025490       0.64922166      -1.31052390       0.00000000
Si       0.82256355       0.26971353       2.21426837       0.00000000
Si       0.33598125       1.65297888      -2.71514707       0.00000000
Si      -1.36712196      -0.12504204       3.11485446       0.00000000
Si      -0.96293448       3.20980345      -1.11302183       0.00000000
Si      -2.10329964      -1.33019253      -2.52131834       0.00000000
Si      -1.83718620      -3.05461935      -0.86587818       0.00000000
Si      -3.11236740       0.87014664       1.91792944       0.00000000
Si       2.26789380      -1.59426972       2.63491722       0.00000000
