10
Lattice="16.28999089631971 0.0 0.0 0.0 16.28999089631971 0.0 0.0 0.0 34.33025523377368" Properties=species:S:1:pos:R:3:initial_magmoms:R:1 pbc="T T T"
Si      -1.61673363      -0.72898306       1.60754943       0.00000000
Si       0.42507144       2.01924487      -1.24718454       0.00000000
Si       1.72249713      -1.72376449      -0.17738453       0.00000000
Si       1.93031354       0.40901258       1.66889763       0.00000000
Si      -2.42618373      -0.79982827      -1.43225905       0.00000000
Si       1.76266175       0.67821297      -2.80886872       0.00000000
Si      -0.95692347      -2.06336212      -2.80732386       0.00000000
Si       3.29057090      -0.54310094      -1.45591261       0.00000000
Si       0.48637706      -3.38889571      -1.36538367       0.00000000
Si       0.84578399       0.97549570       3.60062784       0.00000000
