10
Lattice="16.28999089631971 0.0 0.0 0.0 16.28999089631971 0.0 0.0 0.0 34.33025523377368" Properties=species:S:1:pos:R:3:initial_magmoms:R:1 pbc="T T T"
Si       1.45234214      -1.79885583       0.26413713       0.00000000
Si       0.06970491       1.35378045       1.92177443       0.00000000
Si      -2.25795690      -0.74274255       0.23983130       0.00000000
Si       1.26123926       1.67576859      -1.28192678       0.00000000
Si      -0.59562756       3.17628936      -1.45944863       0.00000000
Si      -3.39473826       1.30236921       0.32696153       0.00000000
Si       0.03275919      -3.68617355       0.35480339       0.00000000
Si      -2.75229324      -1.76876820      -1.76673891       0.00000000
Si      -2.09083779       2.43115218       1.96884124       0.00000000
Si       2.53687169      -2.36533895      -1.66759308       0.00000000
