10
Lattice="16.28999089631971 0.0 0.0 0.0 16.28999089631971 0.0 0.0 0.0 34.33025523377368" Properties=species:S:1:pos:R:3:initial_magmoms:R:1 pbc="T T T"
Si       1.94528664       0.04425341       1.34457953       0.00000000
Si      -0.51196212       1.87981713      -1.36730617       0.00000000
Si      -1.84793760      -1.04877368       1.09046684       0.00000000
Si       0.22136481      -1.80176264      -1.57294451       0.00000000
Si      -1.70377110      -2.78922986      -0.50561628       0.00000000
Si       2.34270276      -2.22789275       1.19743997       0.00000000
Si       2.31914214      -2.86458740      -1.17667016       0.00000000
Si      -1.42315956       1.01429359      -3.45228673       0.00000000
Si       1.47820347       3.12165270      -1.79732719       0.00000000
Si      -0.37260117      -1.10354066      -3.75360354       0.00000000
