10
Lattice="16.28999089631971 0.0 0.0 0.0 16.28999089631971 0.0 0.0 0.0 34.33025523377368" Properties=species:S:1:pos:R:3:initial_magmoms:R:1 pbc="T T T"
Si       0.25296741      -0.73189341       2.19233132       0.00000000
Si       1.95245067       0.89355537      -1.09252665       0.00000000
Si      -0.83971692      -1.95867702      -1.15596900       0.00000000
Si      -1.67544279       1.75425381       0.13639418       0.00000000
Si      -2.08321407      -1.51492113       1.99132757       0.00000000
Si       0.50819913       2.14850439      -2.49694385       0.00000000
Si      -2.23037793      -0.60214356      -2.50501146       0.00000000
Si      -3.54656106       0.85043574      -1.11549361       0.00000000
Si      -0.82505592       3.59666910      -1.07886320       0.00000000
Si       2.10983423      -2.23241418       2.36985317       0.00000000
