10
Lattice="16.28999089631971 0.0 0.0 0.0 16.28999089631971 0.0 0.0 0.0 34.33025523377368" Properties=species:S:1:pos:R:3:initial_magmoms:R:1 pbc="T T T"
Si      -0.16925310      -1.79752005      -1.47352404       0.00000000
Si      -0.00138465      -0.62692065       2.27228653       0.00000000
Si      -1.81107333       1.57043745      -0.05935704       0.00000000
Si       1.43983793       1.95222618      -0.99200761       0.00000000
Si       2.15295223       1.97174160       1.40112149       0.00000000
Si       0.28377180       1.65258792       2.81333166       0.00000000
Si      -0.23796432      -0.61066323      -3.45898113       0.00000000
Si      -0.71371377       3.10388031      -1.50136589       0.00000000
Si       2.01742269      -2.63603151      -1.31553612       0.00000000
Si      -2.01906405       2.04463935       2.23129619       0.00000000
