10
Lattice="16.28999089631971 0.0 0.0 0.0 16.28999089631971 0.0 0.0 0.0 34.33025523377368" Properties=species:S:1:pos:R:3:initial_magmoms:R:1 pbc="T T T"
Si      -1.35325573      -1.35772263      -1.37798288       0.00000000
Si       1.36079818       1.35821133      -1.37866949       0.00000000
Si      -1.25877489       1.48897116       1.39621226       0.00000000
Si       1.37420485      -1.17977067       1.58712292       0.00000000
Si       0.49503355       2.36387448       2.89466008       0.00000000
Si       2.26614751       0.68388678       2.95157967       0.00000000
Si       2.71814614      -2.69216685       0.01558594       0.00000000
Si      -2.69932860      -2.72833065      -0.00731235       0.00000000
Si       2.71987288       2.72295495      -0.00257477       0.00000000
Si      -2.70302643       2.74392018      -0.00820494       0.00000000
