10
Lattice="16.28999089631971 0.0 0.0 0.0 16.28999089631971 0.0 0.0 0.0 34.33025523377368" Properties=species:S:1:pos:R:3:initial_magmoms:R:1 pbc="T T T"
Si      -1.35710361      -1.35597960      -1.35851762       0.00000000
Si       1.35728414      -1.35708732       1.35765936       0.00000000
Si      -1.35806472       1.35814617       1.35745338       0.00000000
Si       1.35800154       1.35933534      -1.35721307       0.00000000
Si       2.71356281      -2.71508688       0.00027464       0.00000000
Si      -0.00040725      -2.71410948       2.71466645       0.00000000
Si      -0.00065160       2.71536381       2.71353355       0.00000000
Si       2.71396843       2.71552671      -0.00027464       0.00000000
Si       2.71522113       0.00201996       2.71432315       0.00000000
Si      -2.71529865      -2.71489140      -0.00003433       0.00000000
