10
Lattice="16.28999089631971 0.0 0.0 0.0 16.28999089631971 0.0 0.0 0.0 34.33025523377368" Properties=species:S:1:pos:R:3:initial_magmoms:R:1 pbc="T T T"
Si       2.14173803       0.70231077       0.60332024       0.00000000
Si      -1.78326630       0.73691073       1.45412743       0.00000000
Si       0.60626493      -2.33206011      -0.24298968       0.00000000
Si      -0.47035746       0.93152736      -2.19538672       0.00000000
Si      -1.63040094      -1.06943850      -2.92881870       0.00000000
Si       1.99166427       3.07029033       0.40550920       0.00000000
Si       3.53207992      -0.40345443      -1.07505254       0.00000000
Si      -0.10655289      -2.82468600      -2.48891057       0.00000000
Si      -2.03124897       3.14564787       1.07656308       0.00000000
Si       2.66999357       0.38773458       2.90643536       0.00000000
