10
Lattice="16.28999089631971 0.0 0.0 0.0 16.28999089631971 0.0 0.0 0.0 34.33025523377368" Properties=species:S:1:pos:R:3:initial_magmoms:R:1 pbc="T T T"
Si      -2.23761069      -0.68418000      -0.26424012       0.00000000
Si       0.32006592      -0.56443221       2.28138406       0.00000000
Si       1.78326630      -0.73691073      -1.45412743       0.00000000
Si      -0.24798267       2.40873714      -0.37756436       0.00000000
Si      -3.29719374       1.19505069       0.64273140       0.00000000
Si       2.53260630      -0.10316457       2.84464087       0.00000000
Si      -2.52346761       2.67250482      -1.05109001       0.00000000
Si      -0.96614361       0.89731836       3.59839637       0.00000000
Si      -2.90629890      -0.53437716      -2.51634045       0.00000000
Si       1.31290884       0.19461663      -3.64951415       0.00000000
