10
Lattice="16.28999089631971 0.0 0.0 0.0 16.28999089631971 0.0 0.0 0.0 34.33025523377368" Properties=species:S:1:pos:R:3:initial_magmoms:R:1 pbc="T T T"
Si      -1.80763614      -0.66222108      -1.29643509       0.00000000
Si      -1.36231641       1.30044652       1.36530471       0.00000000
Si       1.36341398      -1.43931924       1.33816320       0.00000000
Si      -0.44782839      -0.43114743      -3.23638848       0.00000000
Si      -2.58815520      -2.72111418      -0.20422050       0.00000000
Si      -0.00037467       2.64045980       2.72978207       0.00000000
Si      -2.92519530       2.49660770      -0.06949821       0.00000000
Si       2.71345692      -0.07529238       2.72806556       0.00000000
Si      -2.71407690      -0.07641639       2.73225385       0.00000000
Si       0.00060273      -2.78868510       2.73050301       0.00000000
