10
Lattice="16.28999089631971 0.0 0.0 0.0 16.28999089631971 0.0 0.0 0.0 34.33025523377368" Properties=species:S:1:pos:R:3:initial_magmoms:R:1 pbc="T T T"
Si       1.35667113      -1.35689184       1.35752204       0.00000000
Si      -1.35873261      -1.35532800      -1.35838030       0.00000000
Si       1.35615029       1.35897730      -1.35748771       0.00000000
Si      -1.35790182       1.35764096       1.35759070       0.00000000
Si      -0.00034209      -2.71480995       2.71367087       0.00000000
Si       2.71427794      -2.71464705      -0.00013732       0.00000000
Si       2.71408734       2.71529606      -0.00003433       0.00000000
Si      -2.71529865      -2.71438641       0.00048062       0.00000000
Si      -2.71502172       0.00065160       2.71504408       0.00000000
Si       2.71453369       0.00061902       2.71579935       0.00000000
