10
Lattice="16.28999089631971 0.0 0.0 0.0 16.28999089631971 0.0 0.0 0.0 34.33025523377368" Properties=species:S:1:pos:R:3:initial_magmoms:R:1 pbc="T T T"
Si      -2.15355170       1.15165413      -0.50935828       0.00000000
Si       0.71311430       0.01951542       2.39312910       0.00000000
Si       0.39351590      -1.33638273      -2.10571604       0.00000000
Si       2.15424824       1.33131654      -0.39572507       0.00000000
Si      -1.43983793      -1.95222618       0.99200761       0.00000000
Si      -3.25091126      -0.38178873       0.93265057       0.00000000
Si       0.77226329       3.08025981      -1.34142114       0.00000000
Si       2.58257750      -2.22975891      -1.84470297       0.00000000
Si       2.26124096      -1.88375931       2.54377034       0.00000000
Si       2.35901354      -3.12201108       0.29671656       0.00000000
