10
Lattice="16.28999089631971 0.0 0.0 0.0 16.28999089631971 0.0 0.0 0.0 34.33025523377368" Properties=species:S:1:pos:R:3:initial_magmoms:R:1 pbc="T T T"
Si       1.34456174       1.36844145       1.37341696       0.00000000
Si      -1.28445108       1.33639902      -1.46058153       0.00000000
Si      -1.36634091      -1.35161388       1.37801722       0.00000000
Si       1.56255452      -1.21891554      -1.41477807       0.00000000
Si      -2.72838039      -2.67823890      -0.00053555       0.00000000
Si       2.70470018      -2.70951570       0.01584342       0.00000000
Si      -2.71223700       2.71811682      -0.01722350       0.00000000
Si       2.70342956       0.01280394       2.73262118       0.00000000
Si      -0.01070648      -2.70215262       2.73838867       0.00000000
Si       2.69613164       2.74449033      -0.00326138       0.00000000
