10
Lattice="16.28999089631971 0.0 0.0 0.0 16.28999089631971 0.0 0.0 0.0 34.33025523377368" Properties=species:S:1:pos:R:3:initial_magmoms:R:1 pbc="T T T"
Si       1.35627866      -1.35799956      -1.35738472       0.00000000
Si      -1.35769139      -1.35702216       1.35700709       0.00000000
Si      -1.35728414       1.35708732      -1.35765936       0.00000000
Si       1.35793698       1.35910728       1.35666378       0.00000000
Si       0.00012589      -2.71379997      -2.71147373       0.00000000
Si      -0.00216470       2.71235016       2.71418583       0.00000000
Si       2.71422935      -2.71454931       0.00030897       0.00000000
Si       2.71484837       2.71502172      -0.00020598       0.00000000
Si      -2.71518596      -2.71534752      -0.00024031       0.00000000
Si      -2.71438775       0.00110772      -2.71617698       0.00000000
