10
Lattice="16.28999089631971 0.0 0.0 0.0 16.28999089631971 0.0 0.0 0.0 34.33025523377368" Properties=species:S:1:pos:R:3:initial_magmoms:R:1 pbc="T T T"
Si       1.23357654      -1.36519974      -1.54235624       0.00000000
Si      -0.99126279      -1.72428021       1.35487861       0.00000000
Si       1.92699297       0.94908798       1.24773382       0.00000000
Si      -1.47052436       1.33271748      -1.53078694       0.00000000
Si       2.60897382      -2.54246175       0.01139765       0.00000000
Si       0.77985117      -3.40426791       1.41179821       0.00000000
Si      -2.74507123      -2.59918353      -0.14356921       0.00000000
Si       2.67890679       2.74147668      -0.13278950       0.00000000
Si      -2.75599172       2.72582199      -0.10113699       0.00000000
Si       2.58489720      -0.01497051      -2.91978984       0.00000000
