10
Lattice="16.28999089631971 0.0 0.0 0.0 16.28999089631971 0.0 0.0 0.0 34.33025523377368" Properties=species:S:1:pos:R:3:initial_magmoms:R:1 pbc="T T T"
Si      -1.61632638      -0.59000751       1.63793172       0.00000000
Si       0.04639392       2.12734368      -1.10227645       0.00000000
Si       2.22728283      -0.05256783       0.95994313       0.00000000
Si      -0.98593596      -1.45034757      -1.73340422       0.00000000
Si      -2.36792092       0.29859570      -2.67910029       0.00000000
Si       3.34287090      -1.02354957      -0.87981627       0.00000000
Si      -3.23000726       1.08978471       1.30238762       0.00000000
Si       3.01140198       2.22726654       0.33478884       0.00000000
Si       2.25776142       2.42984898      -1.84532091       0.00000000
Si      -2.42706991      -2.76214869       1.05544996       0.00000000
