10
Lattice="16.28999089631971 0.0 0.0 0.0 16.28999089631971 0.0 0.0 0.0 34.33025523377368" Properties=species:S:1:pos:R:3:initial_magmoms:R:1 pbc="T T T"
Si      -1.61368088       1.67979222      -0.33554410       0.00000000
Si       0.73164906       0.02801880       2.25690657       0.00000000
Si       1.61632638       0.59000751      -1.63793172       0.00000000
Si      -0.81074353      -2.17214118      -0.58248177       0.00000000
Si       0.63039042      -0.86034006      -3.37133594       0.00000000
Si      -0.50499000       3.69875853       0.32737350       0.00000000
Si      -2.67992396      -2.49129486       0.82972840       0.00000000
Si       2.48712462      -1.62214191       2.36741572       0.00000000
Si      -1.33207240      -0.35867322       3.57000524       0.00000000
Si       3.84360921       0.53743968      -0.67798859       0.00000000
