10
Lattice="16.28999089631971 0.0 0.0 0.0 16.28999089631971 0.0 0.0 0.0 34.33025523377368" Properties=species:S:1:pos:R:3:initial_magmoms:R:1 pbc="T T T"
Si       1.34961510       1.33888162      -1.37458419       0.00000000
Si      -1.36670072      -1.37516989      -1.37341696       0.00000000
Si       1.52790915      -1.22131392       1.35295611       0.00000000
Si      -1.33759031       1.34103190       1.56168418       0.00000000
Si      -1.76266175      -0.67821297       2.80886872       0.00000000
Si      -0.04016462      -2.40197746       2.63148419       0.00000000
Si      -2.70591791       2.68057489      -0.00247178       0.00000000
Si       2.71155684       2.71673869       0.02042651       0.00000000
Si      -0.00328732       2.69611555      -2.73327346       0.00000000
Si       2.71022106      -0.01895179      -2.73347944       0.00000000
