10
Lattice="16.2900001489832 0.0 0.0 0.0 16.2900001489832 0.0 0.0 0.0 29.32587717646782" Properties=species:S:1:pos:R:3:initial_magmoms:R:1 pbc="T T T"
Si       1.29632563      -1.27236304       1.44969541       0.00000000
Si      -1.32344848      -1.44207226      -1.29588119       0.00000000
Si       1.45546264       1.32383944      -1.29332984       0.00000000
Si      -1.27109242       1.24467004       1.58503434       0.00000000
Si       0.54428149       2.24621183       2.74381705       0.00000000
Si       2.23008473       0.43968339       2.78636889       0.00000000
Si      -0.41363568      -2.15754536       2.85452223       0.00000000
Si      -2.71476110      -0.04474863      -2.59375653       0.00000000
Si      -2.21309426      -0.46354824       3.00379095       0.00000000
Si       0.07019361       2.66571191      -2.65915324       0.00000000
