10
Lattice="16.2900001489832 0.0 0.0 0.0 16.2900001489832 0.0 0.0 0.0 29.32587717646782" Properties=species:S:1:pos:R:3:initial_magmoms:R:1 pbc="T T T"
Si      -1.40100517      -1.31271223      -1.35318589       0.00000000
Si       1.35935164      -1.36631586       1.35533940       0.00000000
Si      -1.40911759       1.34376537       1.33161477       0.00000000
Si       1.38044719       1.30887219      -1.39999685       0.00000000
Si      -0.02906136       2.69208868       2.68468728       0.00000000
Si      -0.06721254      -2.60644564      -2.76784374       0.00000000
Si       0.02024847       2.66231056      -2.73816595       0.00000000
Si       2.70640433      -2.69592661      -0.08052886       0.00000000
Si       2.73675260       2.69269141      -0.06690699       0.00000000
Si      -0.02166570      -2.72798533       2.70498079       0.00000000
