10
Lattice="16.2900001489832 0.0 0.0 0.0 16.2900001489832 0.0 0.0 0.0 29.32587717646782" Properties=species:S:1:pos:R:3:initial_magmoms:R:1 pbc="T T T"
Si      -1.38005623      -1.34832331      -1.35307251       0.00000000
Si      -1.33801174       1.39851280       1.34520731       0.00000000
Si       1.31918050      -1.35218404       1.44095630       0.00000000
Si       1.36332640       1.34680834      -1.40504676       0.00000000
Si       0.02906136      -2.69208868      -2.68468728       0.00000000
Si       2.75600739       2.65274507      -0.00932563       0.00000000
Si       2.72450253      -2.70153688       0.07727369       0.00000000
Si      -2.79347439       0.07467336       2.63853715       0.00000000
Si       0.08778681       2.72274320       2.71346476       0.00000000
Si      -2.71360451      -2.73183628       0.01513215       0.00000000
