10
Lattice="16.2900001489832 0.0 0.0 0.0 16.2900001489832 0.0 0.0 0.0 29.32587717646782" Properties=species:S:1:pos:R:3:initial_magmoms:R:1 pbc="T T T"
Si       1.27879596      -1.30954660      -1.50887503       0.00000000
Si      -1.21624399      -1.60326996       1.26734711       0.00000000
Si      -1.47217618       1.42904026      -1.25913586       0.00000000
Si       1.70520464       1.02506455       1.35638047       0.00000000
Si      -2.32855778      -0.31640067       2.80065060       0.00000000
Si       2.68250690      -2.56320904      -0.05073377       0.00000000
Si       3.50466321      -0.66893257       1.20711176       0.00000000
Si       2.64720647       2.73328284      -0.06237614       0.00000000
Si      -0.12828375       2.76177405      -2.74496076       0.00000000
Si      -2.78024691       0.06915105      -2.74352379       0.00000000
