10
Lattice="16.2900001489832 0.0 0.0 0.0 16.2900001489832 0.0 0.0 0.0 29.32587717646782" Properties=species:S:1:pos:R:3:initial_magmoms:R:1 pbc="T T T"
Si      -1.69253102       0.26658585       1.62336326       0.00000000
Si       0.89184493      -2.20688777       0.01434035       0.00000000
Si       1.77728789       1.23235480       1.03438234       0.00000000
Si      -1.11267217       0.77237407      -2.04301656       0.00000000
Si      -2.80732089       2.07570440       0.67176787       0.00000000
Si      -1.08774847      -3.61590762      -0.16513401       0.00000000
H       -1.29715642      -1.55162251       3.21584637       0.00000000
H       -1.83058877       3.22450127       0.85074370       0.00000000
Si       2.71800281      -0.13724325       2.69595721       0.00000000
Si       3.37867635       1.82873171      -0.52768983       0.00000000
