10
Lattice="16.2900001489832 0.0 0.0 0.0 16.2900001489832 0.0 0.0 0.0 29.32587717646782" Properties=species:S:1:pos:R:3:initial_magmoms:R:1 pbc="T T T"
Si      -1.35019666      -1.25313840       1.47696848       0.00000000
Si       1.40155903       1.35399142       1.35558867       0.00000000
Si       1.37728693      -1.22832873      -1.49350827       0.00000000
Si      -1.31026987       1.36702016      -1.43468056       0.00000000
Si       0.48527910       2.19804474      -2.83443401       0.00000000
Si       2.24808518       0.53198824      -2.88507980       0.00000000
Si      -2.57696399       2.69086612       0.09909214       0.00000000
Si      -0.09396072      -2.49140647      -2.78270316       0.00000000
Si      -2.68895774      -2.64682936       0.16196682       0.00000000
Si       2.80240131      -2.61475435      -0.18566213       0.00000000
