10
Lattice="16.2900001489832 0.0 0.0 0.0 16.2900001489832 0.0 0.0 0.0 29.32587717646782" Properties=species:S:1:pos:R:3:initial_magmoms:R:1 pbc="T T T"
H       -0.14661000       0.01081656       1.53034157       0.00000000
Si      -2.01072359      -1.16638030      -0.52927343       0.00000000
Si       1.86873995      -1.51532839      -0.05469276       0.00000000
Si      -0.17361882       2.41748489      -0.15407816       0.00000000
Si      -1.01160901      -0.30841857      -3.47605487       0.00000000
Si      -3.48410523       0.64716913      -0.97986553       0.00000000
Si       2.39723642      -1.76295269       2.30214001       0.00000000
Si      -2.58916520       2.77734729      -0.12692240       0.00000000
Si       0.66044548       3.28668672       1.88864514       0.00000000
Si      -2.62873361      -2.59481620       1.19717028       0.00000000
