10
Lattice="16.2900001489832 0.0 0.0 0.0 16.2900001489832 0.0 0.0 0.0 29.32587717646782" Properties=species:S:1:pos:R:3:initial_magmoms:R:1 pbc="T T T"
Si      -1.77429053      -1.39711186      -0.74939347       0.00000000
Si      -1.00155808       2.09790767       0.52877489       0.00000000
Si       1.84054196      -0.02042766      -1.51579594       0.00000000
Si       0.93486682      -0.15043815       2.20304787       0.00000000
Si       3.10775736      -1.49398849      -0.13701050       0.00000000
Si       2.46272222       2.23612832      -1.41004683       0.00000000
H        0.40793418       1.51078348      -3.30655130       0.00000000
Si      -2.58137858       2.34988139      -1.15734574       0.00000000
Si       2.46759293       1.67457944       2.22419183       0.00000000
Si      -2.06951420       1.70491142       2.61460723       0.00000000
