10
Lattice="16.2900001489832 0.0 0.0 0.0 16.2900001489832 0.0 0.0 0.0 29.32587717646782" Properties=species:S:1:pos:R:3:initial_magmoms:R:1 pbc="T T T"
Si       0.62218027       2.25655598       0.10574911       0.00000000
Si       1.26721540      -1.47356083       1.37878544       0.00000000
Si      -1.84054196       0.02042766       1.51579594       0.00000000
Si       0.62806096      -0.48716874      -2.34524905       0.00000000
H       -1.43260777       1.53121114      -1.79075536       0.00000000
Si       2.23233275       0.18210591       2.90434690       0.00000000
Si       2.84586303       2.37376253      -0.44733693       0.00000000
Si       3.35365491      -1.64659322       0.31232059       0.00000000
Si       3.60629652       0.60131278       1.01567243       0.00000000
Si       2.67916745      -1.81025885      -2.00970236       0.00000000
