10
Lattice="16.2900001489832 0.0 0.0 0.0 16.2900001489832 0.0 0.0 0.0 29.32587717646782" Properties=species:S:1:pos:R:3:initial_magmoms:R:1 pbc="T T T"
Si       1.12891330      -0.27106560       2.06876468       0.00000000
Si       1.70996132       0.88518232      -1.40482682       0.00000000
Si      -0.82215631      -1.89427648      -1.25784552       0.00000000
Si      -1.79945858       1.69399712       0.14926871       0.00000000
Si      -2.22586725      -0.64061403      -2.71598679       0.00000000
Si       0.41363568       2.15754536      -2.85452223       0.00000000
Si       2.64372041       2.59722875      -0.06815334       0.00000000
Si      -0.85745674       3.40221540      -1.26948790       0.00000000
Si      -3.50466321       0.66893257      -1.20711176       0.00000000
Si       2.74724337       1.59814675       2.10741619       0.00000000
