10
Lattice="16.2900001489832 0.0 0.0 0.0 16.2900001489832 0.0 0.0 0.0 29.32587717646782" Properties=species:S:1:pos:R:3:initial_magmoms:R:1 pbc="T T T"
Si       1.31026987      -1.36702016       1.43468056       0.00000000
Si      -1.58373010      -1.24999198      -1.26840284       0.00000000
Si      -1.26669412       1.32384596       1.53377270       0.00000000
Si       1.79554898       0.83102458      -1.39975344       0.00000000
H       -0.74829745       2.60479383      -2.17155188       0.00000000
Si      -0.25627428      -2.54333492      -2.68736473       0.00000000
Si       2.68755680      -2.59534889      -0.05882771       0.00000000
Si       2.66734091       2.61673440      -0.03563094       0.00000000
Si      -2.39296844       2.94515709       0.29273091       0.00000000
Si      -2.72968275      -2.67469748       0.22387375       0.00000000
