10
Lattice="16.2900001489832 0.0 0.0 0.0 16.2900001489832 0.0 0.0 0.0 29.32587717646782" Properties=species:S:1:pos:R:3:initial_magmoms:R:1 pbc="T T T"
Si       1.39589011      -1.39997890       1.29098377       0.00000000
Si      -1.34477209      -1.35961228      -1.38897912       0.00000000
Si       1.39067731       1.33393924      -1.38188225       0.00000000
Si      -1.34993602       1.32921514       1.43878619       0.00000000
Si      -2.66292632       2.70554096       0.02733172       0.00000000
Si      -2.68540652      -2.71088408       0.01642249       0.00000000
Si       2.74045044      -0.06587676       2.65563413       0.00000000
Si       0.02653641       2.66286116      -2.78565921       0.00000000
Si       2.73763227       2.71466336       0.00554259       0.00000000
Si       2.71233389      -0.09420507      -2.74573789       0.00000000
