10
Lattice="16.2900001489832 0.0 0.0 0.0 16.2900001489832 0.0 0.0 0.0 29.32587717646782" Properties=species:S:1:pos:R:3:initial_magmoms:R:1 pbc="T T T"
Si      -1.31299030       1.37632582      -1.41145447       0.00000000
Si       1.39206196       1.38898315       1.33227460       0.00000000
Si       1.34993602      -1.32921514      -1.43878619       0.00000000
Si      -1.39520593      -1.38021913       1.36576475       0.00000000
Si       0.06234183      -2.74940994       2.64114715       0.00000000
Si       2.80899876      -0.00957852       2.59152777       0.00000000
Si      -2.76517866       0.06188571       2.67149943       0.00000000
Si      -2.61607628       2.82160722      -0.06967828       0.00000000
Si      -2.72093501      -2.73898434      -0.01554271       0.00000000
Si      -2.68884371       0.01003464      -2.78836599       0.00000000
