10
Lattice="16.2900001489832 0.0 0.0 0.0 16.2900001489832 0.0 0.0 0.0 29.32587717646782" Properties=species:S:1:pos:R:3:initial_magmoms:R:1 pbc="T T T"
Si      -2.25608194      -0.55780219       0.50246958       0.00000000
Si       1.47338164      -1.81354943       0.45059210       0.00000000
Si       0.25791957      -0.10269216      -2.39173056       0.00000000
Si       0.89494003       2.13017816       0.85294314       0.00000000
H       -1.73890376       2.11058129       1.11972064       0.00000000
H       -0.81847477      -0.70175692       3.10390949       0.00000000
Si      -0.11124441       3.40816125      -0.97039328       0.00000000
Si      -0.45457245       2.06303078      -2.87194180       0.00000000
Si       2.47249622      -0.95558770      -2.49618934       0.00000000
Si       3.48410523      -0.64716913       0.97986553       0.00000000
