10
Lattice="16.2900001489832 0.0 0.0 0.0 16.2900001489832 0.0 0.0 0.0 29.32587717646782" Properties=species:S:1:pos:R:3:initial_magmoms:R:1 pbc="T T T"
Si       1.55654209       0.00690696      -1.86307298       0.00000000
Si      -0.84558133       2.22404114       0.51411195       0.00000000
Si      -2.28865217      -0.54815688      -0.64162087       0.00000000
Si       0.85682143      -1.50078468       1.83421631       0.00000000
H        3.05220846       1.54131094       1.23755202       0.00000000
Si      -3.06729300      -1.56124730       1.28338836       0.00000000
Si      -2.18254725       2.73123030      -1.50647031       0.00000000
Si      -1.79844697       2.08137332       2.75194031       0.00000000
H        1.44922357       2.94721941       2.18163998       0.00000000
Si       2.74032012      -2.10497753      -1.89893852       0.00000000
