10
Lattice="16.2900001489832 0.0 0.0 0.0 16.2900001489832 0.0 0.0 0.0 29.32587717646782" Properties=species:S:1:pos:R:3:initial_magmoms:R:1 pbc="T T T"
Si       1.60138846       0.59637691      -1.56207217       0.00000000
Si       0.94071493      -1.36959805       1.66157488       0.00000000
Si      -0.51939036       2.13167032       0.93036345       0.00000000
Si      -1.77728789      -1.23235480      -1.03438234       0.00000000
Si      -0.48845565      -0.68936023       3.38142027       0.00000000
Si       0.14527422       1.97234761      -2.88836429       0.00000000
Si      -0.58062448       3.37574415      -1.12608436       0.00000000
Si      -3.46981890      -0.96576895       0.58898092       0.00000000
Si      -2.62992278       0.11743461       2.57448943       0.00000000
Si      -0.88544296      -3.43924257      -1.02004199       0.00000000
