10
Lattice="16.2900001489832 0.0 0.0 0.0 16.2900001489832 0.0 0.0 0.0 29.32587717646782" Properties=species:S:1:pos:R:3:initial_magmoms:R:1 pbc="T T T"
Si       1.00655911      -1.06736968       0.41460925       0.00000000
H        1.31321836      -1.82535968      -0.83188716       0.00000000
Si      -2.15818067       2.03752390       0.34865535       0.00000000
Si      -0.23674257      -2.51022386       1.78524210       0.00000000
Si       2.59084307       0.09791919       1.73849665       0.00000000
Si      -1.76836097       1.89241746      -2.05794343       0.00000000
Si      -0.38644767       2.92768607       1.66620836       0.00000000
H        2.51509457      -1.07165395      -2.05263545       0.00000000
Si      -0.71671114      -1.82632079      -2.81504960       0.00000000
Si      -3.02897892       0.27720693       1.74022688       0.00000000
