10
Lattice="16.2900001489832 0.0 0.0 0.0 16.2900001489832 0.0 0.0 0.0 29.32587717646782" Properties=species:S:1:pos:R:3:initial_magmoms:R:1 pbc="T T T"
Si      -1.23437476      -1.89610715       0.57549101       0.00000000
Si      -1.50237784       1.16978491      -1.35878519       0.00000000
Si       0.32842269       1.22627863       1.99967291       0.00000000
Si       1.46712628      -1.31237128      -1.33359426       0.00000000
Si      -2.52733814      -0.74248192      -2.18574560       0.00000000
Si       3.04694679      -1.56434500       0.35252637       0.00000000
Si      -1.49672521      -2.79536403      -1.59274704       0.00000000
Si      -2.72636936      -0.97775839       2.13803240       0.00000000
Si       0.43640910       3.47245788       0.93534885       0.00000000
Si       1.97899067      -1.95734126       2.43835871       0.00000000
