10
Lattice="16.2900001489832 0.0 0.0 0.0 16.2900001489832 0.0 0.0 0.0 29.32587717646782" Properties=species:S:1:pos:R:3:initial_magmoms:R:1 pbc="T T T"
Si       1.37712403      -1.33198444       1.38277376       0.00000000
Si       1.38101734       1.36166947      -1.34964138       0.00000000
Si      -1.32413266       1.38759443       1.41740762       0.00000000
Si      -1.34208424      -1.37839465      -1.41715249       0.00000000
Si       2.69236235      -2.70399341      -0.05178950       0.00000000
Si      -2.72100017       2.68823773      -0.00516135       0.00000000
Si      -0.00314397      -2.70045848       2.71372870       0.00000000
Si      -2.70819623      -2.71311581      -0.03000037       0.00000000
Si       0.02166570       2.72798533      -2.70498079       0.00000000
Si       2.71710686       2.71853713       0.05698018       0.00000000
