10
Lattice="16.2900001489832 0.0 0.0 0.0 16.2900001489832 0.0 0.0 0.0 29.32587717646782" Properties=species:S:1:pos:R:3:initial_magmoms:R:1 pbc="T T T"
Si      -1.54048015      -0.22064805       1.72210349       0.00000000
Si       1.77429053       1.39711186       0.74939347       0.00000000
Si      -1.49807728       1.56432871      -1.18611443       0.00000000
Si       0.77248810      -2.08730288      -1.14799079       0.00000000
H        0.64982440      -2.42211125       1.91398270       0.00000000
H       -0.95316049      -1.01620279       2.85807066       0.00000000
Si       0.66896515      -1.08822088      -3.32356031       0.00000000
Si      -1.01683810       0.71830756      -3.36611216       0.00000000
Si       0.77273245       3.49501953       1.27816836       0.00000000
Si      -0.80708806       3.74699325      -0.40795228       0.00000000
