10
Lattice="16.2900001489832 0.0 0.0 0.0 16.2900001489832 0.0 0.0 0.0 29.32587717646782" Properties=species:S:1:pos:R:3:initial_magmoms:R:1 pbc="T T T"
Si      -1.35917897      -1.34622218       1.36720172       0.00000000
Si       1.34860024      -1.39766600      -1.35242148       0.00000000
Si      -1.38722872       1.36438009      -1.36536885       0.00000000
Si       1.36303318       1.32668666       1.42817022       0.00000000
Si       2.70469388       0.05372203      -2.62483510       0.00000000
Si       0.07275114      -2.62938549       2.74510738       0.00000000
Si       2.69658146       2.71019963       0.05996555       0.00000000
Si      -2.71218728      -2.71741665      -0.02709711       0.00000000
Si      -0.04028517       2.69112404       2.75569403       0.00000000
Si      -2.69961140       0.01950798       2.76023954       0.00000000
