10
Lattice="16.2900001489832 0.0 0.0 0.0 16.2900001489832 0.0 0.0 0.0 29.32587717646782" Properties=species:S:1:pos:R:3:initial_magmoms:R:1 pbc="T T T"
Si       0.29148512      -1.94925653      -1.30787547       0.00000000
Si      -0.73419845      -0.76666768       2.11424911       0.00000000
Si      -1.47223320       1.41627379      -1.20233164       0.00000000
Si       2.02509951       1.10440337       0.71470095       0.00000000
Si       0.83977394      -2.63750904       2.19744663       0.00000000
Si      -0.04941409       1.10761575       3.45344462       0.00000000
Si       1.54539159      -3.34068318       0.04255185       0.00000000
Si       1.32485757       2.66395748       2.28668527       0.00000000
Si       2.64310954       2.53283927      -1.01174276       0.00000000
Si      -1.78089612      -3.00183489      -1.70436133       0.00000000
