10
Lattice="16.2900001489832 0.0 0.0 0.0 16.2900001489832 0.0 0.0 0.0 29.32587717646782" Properties=species:S:1:pos:R:3:initial_magmoms:R:1 pbc="T T T"
Si      -1.29797092       1.33445922       1.42365403       0.00000000
Si       1.35099487      -1.33915204       1.37277364       0.00000000
Si      -1.68606389      -1.06805386      -1.24585124       0.00000000
Si       1.14595264       1.42470549      -1.49227659       0.00000000
H        1.46769643      -2.82084159      -1.14977967       0.00000000
Si      -3.26003628       0.80278750      -1.32904875       0.00000000
Si       2.60983721      -2.52262055      -0.18346269       0.00000000
Si      -2.57525191       2.67707093       0.01014675       0.00000000
Si       2.68975595       0.05453892       2.68777529       0.00000000
Si      -2.73705234      -0.08915517       2.64135243       0.00000000
