10
Lattice="16.2900001489832 0.0 0.0 0.0 16.2900001489832 0.0 0.0 0.0 29.32587717646782" Properties=species:S:1:pos:R:3:initial_magmoms:R:1 pbc="T T T"
Si       1.86150719      -1.33074640      -0.45622267       0.00000000
Si      -0.79333930      -1.40398624       1.73629721       0.00000000
Si      -1.32155884      -0.23217947      -1.96225309       0.00000000
Si       0.72998749       2.21799755       0.66707573       0.00000000
Si       3.41110974       0.15921032       0.56666392       0.00000000
Si       2.73864225       2.12309201      -0.65994954       0.00000000
Si      -2.03198204      -3.00113931       0.54771941       0.00000000
Si      -2.14071779      -2.45337176      -1.75767577       0.00000000
Si      -2.95674906       1.43591464      -1.83603452       0.00000000
Si      -2.12079512      -0.11064331       3.15525910       0.00000000
