10
Lattice="16.2900001489832 0.0 0.0 0.0 16.2900001489832 0.0 0.0 0.0 29.32587717646782" Properties=species:S:1:pos:R:3:initial_magmoms:R:1 pbc="T T T"
Si       1.23536112       1.47230650       1.27400408       0.00000000
Si       1.66447882      -1.05274126      -1.26846149       0.00000000
Si      -1.29150461       1.42630354      -1.37010498       0.00000000
Si      -1.07541775      -1.70460191       1.26288957       0.00000000
Si      -1.35881489      -2.94301659      -0.71077129       0.00000000
Si      -0.02860605       3.48343995       1.12450076       0.00000000
Si      -2.22032783       2.93651688       0.16560323       0.00000000
Si       0.63951853      -2.96500809      -2.09542190       0.00000000
Si       1.08733715       0.67989574       3.47001374       0.00000000
Si      -2.61105978       0.08951355      -2.76211639       0.00000000
