10
Lattice="16.2900001489832 0.0 0.0 0.0 16.2900001489832 0.0 0.0 0.0 29.32587717646782" Properties=species:S:1:pos:R:3:initial_magmoms:R:1 pbc="T T T"
H        0.30665925      -0.75799000      -1.24649641       0.00000000
H       -1.00655911       1.06736968      -0.41460925       0.00000000
Si      -1.24330168      -1.44285418       1.37063285       0.00000000
Si       1.58428396       1.16528887       1.32388740       0.00000000
H        1.50853546      -0.00428427      -2.46724470       0.00000000
Si       0.06724512       2.57347435       2.59777418       0.00000000
Si      -2.61042365      -0.04184901       2.63346377       0.00000000
Si      -1.72327025      -0.75895111      -3.22965885       0.00000000
Si      -2.69136866      -2.74059705       0.03610015       0.00000000
Si       2.75366163      -0.22672422       2.86455168       0.00000000
