10
Lattice="16.2900001489832 0.0 0.0 0.0 16.2900001489832 0.0 0.0 0.0 29.32587717646782" Properties=species:S:1:pos:R:3:initial_magmoms:R:1 pbc="T T T"
H        1.26459271      -0.26841033      -0.79358756       0.00000000
Si      -0.59427550      -2.15174612      -0.63109288       0.00000000
Si       1.27125532       0.80286895       1.78011007       0.00000000
Si      -1.18019422       1.76713922      -1.01191872       0.00000000
Si       2.98346466       1.41035563       0.19390270       0.00000000
Si       1.95781367       2.07925562      -1.82641563       0.00000000
Si       0.34938792      -1.86496067      -2.88581294       0.00000000
Si       0.99269632       0.42358887      -3.35197709       0.00000000
Si      -2.87891544       2.09461709       0.56156122       0.00000000
H       -3.59245002       0.74523493       0.63311636       0.00000000
