10
Lattice="16.2900001489832 0.0 0.0 0.0 16.2900001489832 0.0 0.0 0.0 29.32587717646782" Properties=species:S:1:pos:R:3:initial_magmoms:R:1 pbc="T T T"
Si       1.39062844      -1.31194774      -1.40336053       0.00000000
Si       1.38308617       1.33157719       1.39249822       0.00000000
Si      -1.29378439      -1.35138583       1.46901530       0.00000000
Si      -1.41693679       1.32049999      -1.39641029       0.00000000
Si      -2.65008980      -2.73520505       0.13592544       0.00000000
Si       2.69120576      -2.69948108       0.01384181       0.00000000
Si      -0.00136836       2.74859544      -2.64648446       0.00000000
Si       0.01982493      -2.67108761      -2.74554727       0.00000000
Si       2.75125071       2.68291415      -0.00818192       0.00000000
Si       0.00697212       2.65800674       2.78357414       0.00000000
