10
Lattice="16.2900001489832 0.0 0.0 0.0 16.2900001489832 0.0 0.0 0.0 29.32587717646782" Properties=species:S:1:pos:R:3:initial_magmoms:R:1 pbc="T T T"
Si      -1.39799152       1.39854538       1.26327081       0.00000000
Si      -1.39268098      -1.30593673      -1.39572114       0.00000000
Si       1.31056309       1.35725023      -1.42770980       0.00000000
Si       1.31634604      -1.30165246       1.51013605       0.00000000
Si       2.68522733      -2.66090636       0.11296328       0.00000000
Si      -0.05343120       2.73264752       2.62792118       0.00000000
Si      -2.66822057       0.06999813       2.72279039       0.00000000
Si       0.00980658      -2.65214234      -2.74226864       0.00000000
Si      -2.75600739      -2.65274507       0.00932563       0.00000000
Si       2.66098781       2.77141773      -0.10530922       0.00000000
