10
Lattice="16.2900001489832 0.0 0.0 0.0 16.2900001489832 0.0 0.0 0.0 29.32587717646782" Properties=species:S:1:pos:R:3:initial_magmoms:R:1 pbc="T T T"
Si      -1.66004876      -1.10490184      -1.37558892       0.00000000
Si       0.98262910       1.63660744      -1.49594232       0.00000000
Si       2.05110650      -1.32309010       0.33554669       0.00000000
Si      -0.62806096       0.48716874       2.34524905       0.00000000
H       -2.06066873       2.01837989       0.55449369       0.00000000
H        1.63419652      -2.84491821      -0.39138316       0.00000000
Si      -0.00588069       2.74372473       2.45099816       0.00000000
Si       2.44923410       0.29602188      -2.81329005       0.00000000
Si      -0.35435637      -2.51779871      -2.77900810       0.00000000
Si       0.63915445      -0.98639209       3.72403449       0.00000000
