10
Lattice="16.2900001489832 0.0 0.0 0.0 16.2900001489832 0.0 0.0 0.0 29.32587717646782" Properties=species:S:1:pos:R:3:initial_magmoms:R:1 pbc="T T T"
Si       1.01250496      -0.74466478       0.81481950       0.00000000
H       -1.07079058       1.42017850      -0.28551674       0.00000000
H        0.23980509       1.08980101      -1.54054698       0.00000000
Si      -1.81143173       2.16222059       0.79074295       0.00000000
Si      -0.41050800      -2.10035117       2.10203489       0.00000000
Si       2.34670484      -2.00526644      -0.65176762       0.00000000
Si       2.33922773       0.71855191       2.09878851       0.00000000
Si       1.02947914       2.17243442      -2.23035026       0.00000000
Si      -3.09630549       0.65671507       2.06211357       0.00000000
Si      -2.29550537      -1.17643123      -2.85170695       0.00000000
