10
Lattice="16.2900001489832 0.0 0.0 0.0 16.2900001489832 0.0 0.0 0.0 29.32587717646782" Properties=species:S:1:pos:R:3:initial_magmoms:R:1 pbc="T T T"
Si       1.34785090       1.37969590       1.29702490       0.00000000
Si      -1.27728099       1.34261171      -1.41350728       0.00000000
Si       1.29797092      -1.33445922      -1.42365403       0.00000000
Si      -1.43908142      -1.42361439       1.21769840       0.00000000
Si      -1.96206536      -0.53167172      -2.75270279       0.00000000
Si      -0.38809296      -2.40251308      -2.66950527       0.00000000
Si      -0.10943622       2.71999150       2.56187930       0.00000000
Si       2.64896579      -2.67361126      -0.05088040       0.00000000
Si       2.65393424       0.01381311       2.67877911       0.00000000
Si      -2.81722521      -0.01867453       2.53604321       0.00000000
