10
Lattice="16.2900001489832 0.0 0.0 0.0 16.2900001489832 0.0 0.0 0.0 29.32587717646782" Properties=species:S:1:pos:R:3:initial_magmoms:R:1 pbc="T T T"
Si       1.03117330       1.78279391      -1.13013133       0.00000000
Si      -1.33517728      -1.31365819      -1.43036966       0.00000000
Si       1.50037417      -1.38960217       1.18878308       0.00000000
Si      -1.36632376       1.35889552       1.37195251       0.00000000
Si       0.03280154      -2.67284693       2.58146899       0.00000000
Si      -2.53570142       2.75090862      -0.16871177       0.00000000
Si       2.70954830       0.02358792       2.68029720       0.00000000
Si       0.01987543      -2.56098350      -2.88522643       0.00000000
Si      -2.76333789      -2.69495246      -0.18032482       0.00000000
Si      -2.74919817       0.02383227       2.72064960       0.00000000
