10
Lattice="16.2900001489832 0.0 0.0 0.0 16.2900001489832 0.0 0.0 0.0 29.32587717646782" Properties=species:S:1:pos:R:3:initial_magmoms:R:1 pbc="T T T"
Si       1.42244281      -1.37499004       1.28725938       0.00000000
Si       1.34820928       1.36056508      -1.38520488       0.00000000
Si      -1.34358292      -1.37427328      -1.38780901       0.00000000
Si      -1.33121881       1.32714273       1.46256947       0.00000000
Si       0.01050705      -2.70010010       2.60023755       0.00000000
Si      -2.69777063       2.68673905       0.07469301       0.00000000
Si       2.69030981       2.72597188       0.03346083       0.00000000
Si      -2.68680746       0.00026064      -2.76779682       0.00000000
Si      -2.72251514      -2.73579149      -0.03407667       0.00000000
Si       2.68723100      -0.01418859      -2.78947450       0.00000000
