10
Lattice="16.2900001489832 0.0 0.0 0.0 16.2900001489832 0.0 0.0 0.0 29.32587717646782" Properties=species:S:1:pos:R:3:initial_magmoms:R:1 pbc="T T T"
Si       1.15486327      -1.28330992      -1.53450585       0.00000000
Si      -1.21821508      -1.47893653       1.36488498       0.00000000
Si      -1.38728248       1.44906067      -1.33541247       0.00000000
Si       1.79807393       0.62020918       1.49517985       0.00000000
Si       2.64202625      -2.54620847      -0.22273004       0.00000000
Si       2.49627962       0.21434382      -2.77930136       0.00000000
Si      -0.36225702      -2.46829340      -2.87719114       0.00000000
Si       0.28416276      -2.64872144       2.72367017       0.00000000
Si       0.72057187       0.82373644       3.65901902       0.00000000
Si      -2.84859665       2.59472009       0.07703908       0.00000000
