10
Lattice="16.2900001489832 0.0 0.0 0.0 16.2900001489832 0.0 0.0 0.0 29.32587717646782" Properties=species:S:1:pos:R:3:initial_magmoms:R:1 pbc="T T T"
Si      -1.12627432       1.62131113      -1.24104180       0.00000000
Si       1.31422834       1.32475168       1.40755413       0.00000000
Si      -1.41310864      -1.28438832       1.41077997       0.00000000
Si       1.26669412      -1.32384596      -1.53377270       0.00000000
Si       2.52341876       2.59862969      -0.15322771       0.00000000
Si      -2.66396888       0.23486922      -2.46651155       0.00000000
Si       2.57696399      -2.69086612      -0.09909214       0.00000000
Si       0.63659692       3.41759316      -1.36532486       0.00000000
Si      -0.31703598      -2.57383794      -2.80217554       0.00000000
Si      -0.12111615       2.68190417       2.73047377       0.00000000
