10
Lattice="16.2900001489832 0.0 0.0 0.0 16.2900001489832 0.0 0.0 0.0 29.32587717646782" Properties=species:S:1:pos:R:3:initial_magmoms:R:1 pbc="T T T"
Si      -1.33892398      -1.41753627       1.36981172       0.00000000
Si      -1.35674524       1.33662709      -1.43878619       0.00000000
Si       1.31460301      -1.31751566      -1.50638233       0.00000000
Si       1.30807072       1.35988921       1.48438793       0.00000000
Si       2.65196315       2.69262299      -0.00143697       0.00000000
Si       2.71577108      -2.69422658      -0.19522236       0.00000000
Si      -2.72562653       2.69588099      -0.04161342       0.00000000
Si      -2.70692561      -2.71634482      -0.07727369       0.00000000
Si       2.78024691      -0.06915105       2.74352379       0.00000000
Si       0.05543487      -2.87906205       2.66246706       0.00000000
