10
Lattice="16.2900001489832 0.0 0.0 0.0 16.2900001489832 0.0 0.0 0.0 29.32587717646782" Properties=species:S:1:pos:R:3:initial_magmoms:R:1 pbc="T T T"
Si       2.21690612      -0.80910802       0.05305051       0.00000000
Si      -0.28101879       1.65584594       1.67063657       0.00000000
Si      -0.78710023       1.14681601      -1.94518543       0.00000000
Si      -1.17253792      -2.08785674      -0.03225846       0.00000000
H       -1.35509995       2.57574224       1.08007206       0.00000000
Si       2.29174238      -1.94963609      -1.97108018       0.00000000
Si      -2.75235843      -1.83588302      -1.71837910       0.00000000
Si       2.29661309      -2.51118497       1.66315847       0.00000000
Si      -1.86162122      -0.42099876      -3.33118504       0.00000000
Si      -2.24049404      -2.48085299       2.05357388       0.00000000
