10
Lattice="16.2900001489832 0.0 0.0 0.0 16.2900001489832 0.0 0.0 0.0 29.32587717646782" Properties=species:S:1:pos:R:3:initial_magmoms:R:1 pbc="T T T"
Si       0.89073721       1.41488425      -1.61280594       0.00000000
Si       1.57982050      -0.25197372       1.68612063       0.00000000
Si      -1.46712628       1.31237128       1.33359426       0.00000000
Si      -0.69098923      -2.18266454      -0.77816215       0.00000000
Si      -2.96385150      -1.48299274      -0.25915278       0.00000000
Si      -2.70150104      -0.58373587       1.90908528       0.00000000
Si       1.96525820       2.98269903      -0.22680633       0.00000000
Si       2.58137858      -2.34988139       1.15734574       0.00000000
Si       2.12374361       0.05075964      -3.02015479       0.00000000
Si       2.75235843       1.83588302       1.71837910       0.00000000
