10
Lattice="16.2900001489832 0.0 0.0 0.0 16.2900001489832 0.0 0.0 0.0 29.32587717646782" Properties=species:S:1:pos:R:3:initial_magmoms:R:1 pbc="T T T"
Si       1.35490447       1.35321031       1.39609357       0.00000000
Si      -1.37917657       1.41724630      -1.30778749       0.00000000
Si      -1.36816453      -1.35133696       1.40068014       0.00000000
Si       1.35402481      -1.34504902      -1.43262775       0.00000000
Si       2.65794158      -2.67279806       0.03665735       0.00000000
Si      -2.75261907       0.06568128      -2.63830254       0.00000000
Si      -2.71337645       2.67784796       0.15879963       0.00000000
Si       2.71256195       2.71568963       0.00146629       0.00000000
Si      -2.75125071      -2.68291415       0.00818192       0.00000000
Si      -0.00237834       2.74062963       2.75833336       0.00000000
