10
Lattice="16.2900001489832 0.0 0.0 0.0 16.2900001489832 0.0 0.0 0.0 29.32587717646782" Properties=species:S:1:pos:R:3:initial_magmoms:R:1 pbc="T T T"
Si       0.72589870      -1.40339654      -1.76227994       0.00000000
Si       1.72680518       1.63475038      -0.23428443       0.00000000
Si       0.06123411      -1.24407383       2.05644781       0.00000000
Si      -2.20784888       0.90679915      -0.35836222       0.00000000
H       -1.29264409       2.50334948       1.73386316       0.00000000
H       -3.02725218      -1.38359768       0.94244571       0.00000000
Si       2.18201294      -2.77936725      -0.43598782       0.00000000
Si       0.52189902       3.02231631      -1.89099121       0.00000000
Si       0.58062448      -3.37574415       1.12608436       0.00000000
Si      -1.56454048       3.19534869      -0.82452636       0.00000000
