10
Lattice="16.2900001489832 0.0 0.0 0.0 16.2900001489832 0.0 0.0 0.0 29.32587717646782" Properties=species:S:1:pos:R:3:initial_magmoms:R:1 pbc="T T T"
H       -1.06409539      -1.06447006      -0.10158484       0.00000000
Si       0.49298427       0.83439010      -2.10935169       0.00000000
Si      -0.99315244       1.79183486       1.11523378       0.00000000
Si       1.82226458      -1.03026106       1.11491120       0.00000000
H       -2.97743736       0.17713746      -1.26133530       0.00000000
Si      -2.32930712       0.45294345       2.50366744       0.00000000
Si       0.61142887      -2.67248855       2.34255107       0.00000000
Si       2.79036300       0.95138488      -2.15084781       0.00000000
Si      -1.42177492      -1.68037868       3.09091813       0.00000000
H       -3.47144790       0.15472242       1.53735046       0.00000000
