10
Lattice="16.2900001489832 0.0 0.0 0.0 16.2900001489832 0.0 0.0 0.0 29.32587717646782" Properties=species:S:1:pos:R:3:initial_magmoms:R:1 pbc="T T T"
Si      -1.57472173      -1.09014310      -1.39599973       0.00000000
Si       1.32157513      -1.28094787       1.56110442       0.00000000
Si      -1.25817445       1.42980589       1.48626478       0.00000000
Si       0.91768087       1.11700531      -1.94694499       0.00000000
H        2.07518801       2.11299221      -1.25907721       0.00000000
H        3.31198509      -0.05760144      -1.36315475       0.00000000
Si      -2.74365957      -2.54186067       0.08184852       0.00000000
Si      -2.63326223       0.80148430      -2.60363935       0.00000000
Si      -0.87985549       2.48240054      -2.75760021       0.00000000
Si       2.91131788      -2.59461747       0.44871525       0.00000000
