10
Lattice="16.2900001489832 0.0 0.0 0.0 16.2900001489832 0.0 0.0 0.0 29.32587717646782" Properties=species:S:1:pos:R:3:initial_magmoms:R:1 pbc="T T T"
Si      -1.35817876      -0.92108548      -1.72148764       0.00000000
Si       2.03320379      -0.99210988      -0.74836706       0.00000000
Si      -0.90753220       2.13332213      -0.58725069       0.00000000
Si      -0.90241714      -0.97062337       2.01316282       0.00000000
H       -2.04967298       1.83510110      -1.55356767       0.00000000
H        0.35767953       0.61590862      -3.19250297       0.00000000
Si      -2.34142688      -2.45713475       0.84077290       0.00000000
H        2.53531046       2.26623224       1.31115997       0.00000000
Si      -3.47661183      -1.11643516      -0.75311785       0.00000000
Si       1.42177492       1.68037868      -3.09091813       0.00000000
