10
Lattice="16.2900001489832 0.0 0.0 0.0 16.2900001489832 0.0 0.0 0.0 29.32587717646782" Properties=species:S:1:pos:R:3:initial_magmoms:R:1 pbc="T T T"
H       -0.31674276       0.46678995      -1.40356581       0.00000000
Si      -0.35640891      -2.29026651       0.14425399       0.00000000
Si       2.32850891       0.21668958       0.01571867       0.00000000
Si      -1.34573320       0.89350651       1.71773393       0.00000000
H       -1.91972765       1.87269842      -0.45947784       0.00000000
H        2.45276903      -1.78692179      -0.93819346       0.00000000
H       -0.66966562       3.11367063       1.27992791       0.00000000
Si       1.47603691      -2.93571867      -1.11716929       0.00000000
Si      -2.15212079      -1.09548622       2.63598580       0.00000000
Si      -2.51212979      -2.57530567      -0.80690151       0.00000000
