10
Lattice="16.2900001489832 0.0 0.0 0.0 16.2900001489832 0.0 0.0 0.0 29.32587717646782" Properties=species:S:1:pos:R:3:initial_magmoms:R:1 pbc="T T T"
Si      -1.41193576      -1.32511006       1.31297817       0.00000000
Si       1.31626459      -1.39484755      -1.37025161       0.00000000
Si      -1.42244281       1.37499004      -1.28725938       0.00000000
Si       1.35936793       1.32804226       1.42347808       0.00000000
Si       2.64297107      -2.72412785       0.06164299       0.00000000
Si       2.65645919      -0.01267362      -2.72997523       0.00000000
Si       2.66903507       2.72425101       0.05736142       0.00000000
Si      -0.07423353       2.73555513      -2.67246425       0.00000000
Si      -0.14501358      -2.72574056       2.68736473       0.00000000
Si      -2.76602574       0.00071676      -2.67506839       0.00000000
