10
Lattice="16.2900001489832 0.0 0.0 0.0 16.2900001489832 0.0 0.0 0.0 29.32587717646782" Properties=species:S:1:pos:R:3:initial_magmoms:R:1 pbc="T T T"
Si       1.32855214       1.39552033      -1.37636606       0.00000000
Si       1.38722872      -1.36438009       1.36536885       0.00000000
Si      -1.36006352       1.36336387       1.39434868       0.00000000
Si      -1.37923685      -1.34314570      -1.40220215       0.00000000
Si       2.69815019       2.69055905       0.05601536       0.00000000
Si      -2.71193805       2.68604672      -0.02817337       0.00000000
Si      -2.71662957      -2.70832167      -0.00848691       0.00000000
Si       2.78583926       0.05522473      -2.64122046       0.00000000
Si       0.02804975      -2.71060227       2.73257057       0.00000000
Si      -0.00109306      -2.74808556      -2.72054696       0.00000000
