10
Lattice="16.2900001489832 0.0 0.0 0.0 16.2900001489832 0.0 0.0 0.0 29.32587717646782" Properties=species:S:1:pos:R:3:initial_magmoms:R:1 pbc="T T T"
Si       0.60939262      -1.75936889      -1.47890399       0.00000000
Si      -1.21704220      -1.36544410       1.55174946       0.00000000
Si       1.49524282       1.23074209       1.42121999       0.00000000
Si      -1.31714425       1.47053089      -1.39198209       0.00000000
Si      -2.55277334       2.77071726       0.14504579       0.00000000
Si      -2.75147877      -2.57450420       0.22510543       0.00000000
Si      -3.19253052       0.28287585      -2.03172610       0.00000000
Si      -1.14401413      -3.44028513      -1.32494313       0.00000000
Si       0.18204075       2.62078409       2.86856933       0.00000000
Si      -2.52804512      -0.05980059       2.99047700       0.00000000
