10
Lattice="16.2900001489832 0.0 0.0 0.0 16.2900001489832 0.0 0.0 0.0 29.32587717646782" Properties=species:S:1:pos:R:3:initial_magmoms:R:1 pbc="T T T"
Si       0.77864083       1.01309042      -1.92500923       0.00000000
Si       1.26396718      -2.01113344       0.14950332       0.00000000
Si       0.66121599       1.34708104       1.87055108       0.00000000
Si      -2.19172178      -0.54692307      -0.95889753       0.00000000
Si      -1.26289855      -2.05713641      -2.49460574       0.00000000
Si      -0.79498459       2.86703742      -2.04395499       0.00000000
Si       0.02860605      -3.48343995      -1.12450076       0.00000000
Si       3.06729300       1.56124730      -1.28338836       0.00000000
Si       0.06270331      -0.46252458      -3.68080815       0.00000000
Si      -0.67759885       0.61458815       3.63582225       0.00000000
