10
Lattice="16.2900001489832 0.0 0.0 0.0 16.2900001489832 0.0 0.0 0.0 29.32587717646782" Properties=species:S:1:pos:R:3:initial_magmoms:R:1 pbc="T T T"
Si       0.28339713       1.23841468       1.97366086       0.00000000
Si      -0.04908177      -2.26782866       0.74707672       0.00000000
Si      -1.97343578       1.30735396      -0.51343746       0.00000000
Si       1.99833341      -0.02199150      -1.38465062       0.00000000
Si      -2.26898525      -2.36087714       0.12472296       0.00000000
Si       1.35881489       2.94301659       0.71077129       0.00000000
Si      -3.02941875      -0.58842739      -1.33828640       0.00000000
Si       1.79930219      -0.25726797       2.93912739       0.00000000
H       -1.12614400      -2.06926985      -2.71516566       0.00000000
Si       3.02329371       1.89027533      -0.55769021       0.00000000
