10
Lattice="16.2900001489832 0.0 0.0 0.0 16.2900001489832 0.0 0.0 0.0 29.32587717646782" Properties=species:S:1:pos:R:3:initial_magmoms:R:1 pbc="T T T"
Si      -1.36734840       1.32652729      -1.40963040       0.00000000
Si       1.34449516      -1.34319196      -1.42417017       0.00000000
Si       1.37585341       1.36629118       1.37691152       0.00000000
Si      -1.36825087      -1.37523439       1.37826051       0.00000000
Si       2.69400764      -2.69886206      -0.03939932       0.00000000
Si      -0.08808003      -2.68845275      -2.73950321       0.00000000
Si      -2.71217099       2.72354141      -0.05351679       0.00000000
Si       2.74196541       2.70101234      -0.01024060       0.00000000
Si      -0.00783549       2.67685427      -2.77903449       0.00000000
Si      -2.72565911       0.01208718       2.73810143       0.00000000
