10
Lattice="16.2900001489832 0.0 0.0 0.0 16.2900001489832 0.0 0.0 0.0 29.32587717646782" Properties=species:S:1:pos:R:3:initial_magmoms:R:1 pbc="T T T"
Si      -1.50037417       1.38960217      -1.18878308       0.00000000
Si       1.20917413       1.41319009       1.49151411       0.00000000
Si      -1.46757263      -1.28324476       1.39268591       0.00000000
Si       1.25762059      -1.53192790      -1.42239302       0.00000000
Si       2.39280554      -2.87262750       0.17149773       0.00000000
H        2.68455944       1.41960835      -2.22284284       0.00000000
Si       2.58747104       0.05149269       2.81751298       0.00000000
Si      -2.83555146       0.07594398      -2.61915274       0.00000000
Si      -2.83543743      -2.65028528      -0.01721429       0.00000000
Si       2.56785788       2.90129790       0.29971046       0.00000000
