10
Lattice="16.2900001489832 0.0 0.0 0.0 16.2900001489832 0.0 0.0 0.0 29.32587717646782" Properties=species:S:1:pos:R:3:initial_magmoms:R:1 pbc="T T T"
Si       1.35448093       1.32680015      -1.39338973       0.00000000
Si       1.37676565      -1.40571298       1.34004596       0.00000000
Si      -1.35804844       1.38213125       1.40412300       0.00000000
Si      -1.33266862      -1.32862870      -1.49902154       0.00000000
Si      -2.50679645      -0.17099613       2.78393485       0.00000000
Si       2.65354328       2.69394086       0.07621795       0.00000000
Si      -2.76175938       2.63579370      -0.05401827       0.00000000
Si      -2.69932633      -2.71046054      -0.20624889       0.00000000
Si       2.67546962      -2.76125277      -0.09706865       0.00000000
Si      -0.04238658       2.62744345      -2.81595870       0.00000000
