10
Lattice="16.2900001489832 0.0 0.0 0.0 16.2900001489832 0.0 0.0 0.0 29.32587717646782" Properties=species:S:1:pos:R:3:initial_magmoms:R:1 pbc="T T T"
Si      -1.17196777       0.37888911       2.01589012       0.00000000
Si       2.15572088       0.28503916       0.95115550       0.00000000
Si      -0.29224260      -2.29397085      -0.64965616       0.00000000
Si      -0.85682143       1.50078468      -1.83421631       0.00000000
Si      -2.66014725      -2.07159606      -0.40132463       0.00000000
H        2.13573305      -2.66717476      -0.12014812       0.00000000
Si       2.51212979       2.57530567       0.80690151       0.00000000
Si      -1.13769361      -1.76943285       3.04440729       0.00000000
Si      -3.26289843       1.28661842       1.31972312       0.00000000
Si       0.36000900       1.47981945       3.44288731       0.00000000
