10
Lattice="10.86 0.0 0.0 0.0 10.86 0.0 0.0 0.0 10.86" Properties=species:S:1:pos:R:3:initial_magmoms:R:1 pbc="T T T"
Si      -1.35750000      -1.35750000       1.35750000       0.00000000
Si      -1.35750000       1.35750000      -1.35750000       0.00000000
Si       1.35750000      -1.35750000      -1.35750000       0.00000000
Si       1.35750000       1.35750000       1.35750000       0.00000000
Si      -2.73434166      -0.14137548      -2.54979768       0.00000000
Si       2.56888956      -0.00417024       2.72306898       0.00000000
Si       2.66226384      -0.03481716      -2.69683122       0.00000000
Si      -2.63899086       0.00474582       2.74273644       0.00000000
Si      -2.67815202       2.71350132       0.08886738       0.00000000
Si      -2.77520784      -2.61594594      -0.12233790       0.00000000
