10
Lattice="10.86 0.0 0.0 0.0 10.86 0.0 0.0 0.0 10.86" Properties=species:S:1:pos:R:3:initial_magmoms:R:1 pbc="T T T"
Si       1.28149086       1.35275418       1.32976356       0.00000000
Si       1.28149086      -1.36224582      -1.38523644       0.00000000
Si      -1.43350914      -1.36224582       1.32976356       0.00000000
Si       2.63899086      -0.00474582       2.68726356       0.00000000
Si      -2.65522656       2.68129056      -0.00262812       0.00000000
Si       2.63899086       2.71025418      -0.02773644       0.00000000
Si       2.63899086      -2.71974582      -0.02773644       0.00000000
Si      -0.03916116       2.70875550      -2.65386906       0.00000000
Si       2.63899086      -0.00474582      -2.74273644       0.00000000
Si      -0.07600914       2.71025418       2.68726356       0.00000000
