10
Lattice="16.28999089631971 0.0 0.0 0.0 16.28999089631971 0.0 0.0 0.0 34.56409401068381" Properties=species:S:1:pos:R:3:initial_magmoms:R:1 pbc="T T T"
Si      -1.09144629      -1.76914287       1.08545141       0.00000000
Si       1.55747061      -0.28341342      -1.73238792       0.00000000
Si      -1.50167736       1.10786661      -1.45829451       0.00000000
Si       1.53689634       1.01196738       1.53907084       0.00000000
Si      -0.28323423       3.05872443      -1.89601444       0.00000000
Si       1.79409915       2.06008227      -2.38267715       0.00000000
Si       3.30362829      -1.56138021      -0.79943338       0.00000000
Si       2.52682335      -2.57139279       1.23210695       0.00000000
Si       0.42803604      -3.59360658       1.31226113       0.00000000
Si       0.57148578      -1.34254035      -3.57175178       0.00000000
