10
Lattice="16.28999089631971 0.0 0.0 0.0 16.28999089631971 0.0 0.0 0.0 34.56409401068381" Properties=species:S:1:pos:R:3:initial_magmoms:R:1 pbc="T T T"
Si      -2.10991731      -0.93858093      -0.09304659       0.00000000
Si       1.57819475      -1.47681882       0.87782479       0.00000000
Si       0.25660008       0.96195708      -2.11698281       0.00000000
Si      -0.19610228       1.54905261       1.77866927       0.00000000
Si       2.26884188       2.08423775      -1.69720166       0.00000000
Si      -1.43564163       2.57671866      -2.09856014       0.00000000
Si       0.66590425      -1.89995157       3.01060340       0.00000000
Si      -1.73583375      -3.19712427       0.44663747       0.00000000
Si       3.42205985      -0.04536765       1.38591725       0.00000000
Si      -2.41108683       2.27664220       1.71427633       0.00000000
