10
Lattice="16.28999089631971 0.0 0.0 0.0 16.28999089631971 0.0 0.0 0.0 34.56409401068381" Properties=species:S:1:pos:R:3:initial_magmoms:R:1 pbc="T T T"
Si       1.33454196      -1.66092255      -1.34170975       0.00000000
Si      -1.22792391       1.33603738       2.00872801       0.00000000
Si      -1.84290399       0.93745529      -1.82322241       0.00000000
Si       2.51353071       1.26153670       0.65568123       0.00000000
Si       0.92159046      -1.40314959       2.41057039       0.00000000
Si       0.14690322       3.85432477       0.09187141       0.00000000
Si       2.24479458      -0.41385789      -3.13092108       0.00000000
Si       2.80445382      -0.07809915       2.73733952       0.00000000
Si       3.12741936       1.59255601      -1.86940007       0.00000000
Si      -2.22133698       3.17859928       0.99306154       0.00000000
