10
Lattice="16.28999089631971 0.0 0.0 0.0 16.28999089631971 0.0 0.0 0.0 34.56409401068381" Properties=species:S:1:pos:R:3:initial_magmoms:R:1 pbc="T T T"
Si       1.35884664       0.96033134       1.76324819       0.00000000
Si       1.98490392       0.54383351      -1.32335621       0.00000000
Si      -1.09688715      -1.52309775       1.63797747       0.00000000
Si      -1.98454554       1.17214858      -1.24479198       0.00000000
Si       3.35051091       1.53991813       0.46990227       0.00000000
Si      -2.73803949      -2.76742569       0.52354508       0.00000000
Si       0.12492801       2.46312130       3.09333403       0.00000000
Si      -2.57127876      -0.25970321       3.07676745       0.00000000
Si       1.87551657       2.52521878      -2.58681281       0.00000000
Si       3.05546643      -1.24181832      -2.45626415       0.00000000
