10
Lattice="16.28999089631971 0.0 0.0 0.0 16.28999089631971 0.0 0.0 0.0 34.56409401068381" Properties=species:S:1:pos:R:3:initial_magmoms:R:1 pbc="T T T"
Si       0.08615781      -2.18720943       0.70441663       0.00000000
Si      -0.59880411       0.36318555       2.26049301       0.00000000
Si       1.93893354       1.36546038      -0.12062876       0.00000000
Si      -1.82948103       0.52549911      -1.42995193       0.00000000
Si       1.24390440      -2.72544732      -1.36324319       0.00000000
Si      -0.37041831       1.94800707      -2.67816576       0.00000000
Si       2.64499101       1.20208797       2.08397408       0.00000000
Si       1.00442511       3.32014635      -1.07446003       0.00000000
Si       2.28110499      -0.98722287      -2.70301735       0.00000000
Si      -3.49317873       1.67580117      -0.21913648       0.00000000
