10
Lattice="16.28999089631971 0.0 0.0 0.0 16.28999089631971 0.0 0.0 0.0 34.56409401068381" Properties=species:S:1:pos:R:3:initial_magmoms:R:1 pbc="T T T"
Si       1.92450060       1.36806678      -0.15747410       0.00000000
Si       0.57806694      -1.86878880      -1.34914104       0.00000000
Si      -1.12979295      -0.74691279       1.97952133       0.00000000
Si      -1.85248251       1.21754718      -0.98379836       0.00000000
Si      -0.51743556      -1.31545008      -3.36616443       0.00000000
Si      -0.42577173      -3.63908826      -0.16763595       0.00000000
Si       1.38150603       3.26730159       1.09468003       0.00000000
Si       2.09290662       1.81240911      -2.49905452       0.00000000
Si      -1.49408622       1.23507522       3.20637454       0.00000000
Si      -3.27647286      -1.32418152       1.30126974       0.00000000
