10
Lattice="16.28999089631971 0.0 0.0 0.0 16.28999089631971 0.0 0.0 0.0 34.56409401068381" Properties=species:S:1:pos:R:3:initial_magmoms:R:1 pbc="T T T"
Si       1.40004405       1.49985288      -1.12492363       0.00000000
Si       0.71216622      -1.41929883       1.78164179       0.00000000
Si      -0.94907169      -1.45696131      -1.64310882       0.00000000
Si      -1.96359660       1.35441576       0.24315854       0.00000000
Si      -2.53558737      -2.33544843      -0.03031273       0.00000000
Si      -1.60410888       0.33357033      -3.14018426       0.00000000
Si      -1.96840215       2.31555834      -1.91333106       0.00000000
Si      -1.42278489      -2.58106905       2.06378864       0.00000000
Si       2.44964133       2.61925281       0.63124440       0.00000000
Si      -3.71338695      -0.26761212       0.16970980       0.00000000
