10
Lattice="16.28999089631971 0.0 0.0 0.0 16.28999089631971 0.0 0.0 0.0 34.56409401068381" Properties=species:S:1:pos:R:3:initial_magmoms:R:1 pbc="T T T"
Si       1.19485521      -1.27378026       1.62537743       0.00000000
Si       1.29296988       1.52513496      -1.30199558       0.00000000
Si      -1.46811996      -1.25486757      -1.51867801       0.00000000
Si      -1.70223984       1.31517315       1.25889414       0.00000000
Si      -0.83968434      -2.37886128       2.28963056       0.00000000
Si      -2.57678478      -0.78470559       2.13419574       0.00000000
Si       2.56743432      -2.51538777       0.10749439       0.00000000
Si       2.45387673       0.03992679      -2.86049145       0.00000000
Si      -0.26528265       2.73406473      -2.86778448       0.00000000
Si      -0.25818021      -2.69322570      -2.90857014       0.00000000
