10
Lattice="16.28999089631971 0.0 0.0 0.0 16.28999089631971 0.0 0.0 0.0 34.56409401068381" Properties=species:S:1:pos:R:3:initial_magmoms:R:1 pbc="T T T"
Si      -0.16443126      -1.81288152      -1.51038262       0.00000000
Si      -0.64754379      -0.50479452       2.23135546       0.00000000
Si       2.34375633      -0.47504898      -0.00680913       0.00000000
Si      -1.15435827       1.77047865      -1.20341873       0.00000000
Si       0.86890860       2.52501516      -2.24324552       0.00000000
Si       2.15482491      -2.53140084       1.11434701       0.00000000
Si       0.61237368      -0.80286894      -3.54192295       0.00000000
Si      -2.58908373      -1.81371231       1.97703272       0.00000000
Si       1.07763237      -1.89389169       3.10181809       0.00000000
Si       1.10522763      -3.65080077      -0.64182102       0.00000000
