10
Lattice="16.28999089631971 0.0 0.0 0.0 16.28999089631971 0.0 0.0 0.0 34.56409401068381" Properties=species:S:1:pos:R:3:initial_magmoms:R:1 pbc="T T T"
Si      -0.00480555       0.96114258      -2.15648959       0.00000000
Si      -0.33067071       1.98252558       1.25077157       0.00000000
Si      -1.74979035      -1.62202788      -0.07344874       0.00000000
Si       1.96359660      -1.35441576      -0.24315854       0.00000000
Si       1.01452491      -2.81137707      -1.88626736       0.00000000
Si       0.35948772      -1.02084543      -3.38334280       0.00000000
Si       3.36364065       0.14543712      -1.36808217       0.00000000
Si       2.09398176       1.98335637      -2.23664377       0.00000000
Si      -1.95076008       3.10987503      -0.04192627       0.00000000
Si      -0.57199077      -3.68986419      -0.27347126       0.00000000
