10
Lattice="16.28999089631971 0.0 0.0 0.0 16.28999089631971 0.0 0.0 0.0 34.56409401068381" Properties=species:S:1:pos:R:3:initial_magmoms:R:1 pbc="T T T"
Si       1.08299178      -2.05389207      -0.43975921       0.00000000
Si       0.48079935       1.78711074      -1.47733933       0.00000000
Si      -2.08973007       0.66795516       1.01117314       0.00000000
Si       3.02775714       1.32123303       1.37299027       0.00000000
Si       1.65835458      -0.85336794       3.13932016       0.00000000
Si       2.11426281       2.99516085      -0.20064468       0.00000000
Si      -0.17948322      -2.88895005      -2.31441303       0.00000000
Si      -2.97753507      -1.45336122       1.75205490       0.00000000
Si       3.35934009      -1.47763332      -0.97743856       0.00000000
Si       0.37585917      -3.46709844       1.56395700       0.00000000
