10
Lattice="16.28999089631971 0.0 0.0 0.0 16.28999089631971 0.0 0.0 0.0 34.56409401068381" Properties=species:S:1:pos:R:3:initial_magmoms:R:1 pbc="T T T"
Si      -1.35692442      -1.35741312      -1.35774750       0.00000000
Si       1.35790182       1.35781979      -1.35798945       0.00000000
Si      -1.35747828       1.36082027       1.35850791       0.00000000
Si       1.35795069      -1.36068741       1.35826596       0.00000000
Si      -2.71363707      -2.71396287      -0.00120974       0.00000000
Si      -2.71407690       2.71385440      -0.00179733       0.00000000
Si      -2.71440270      -0.00004887      -2.71559869       0.00000000
Si       0.00087966      -2.71511946      -2.71504567       0.00000000
Si       0.00097740       2.71502891      -2.71549500       0.00000000
Si       2.71648782       2.71419486      -0.00124431       0.00000000
