10
Lattice="16.28999089631971 0.0 0.0 0.0 16.28999089631971 0.0 0.0 0.0 34.56409401068381" Properties=species:S:1:pos:R:3:initial_magmoms:R:1 pbc="T T T"
Si       1.35563128       1.35817875       1.35736729       0.00000000
Si       1.35762191      -1.35677618      -1.35729817       0.00000000
Si      -1.35743143       1.35755973      -1.35712535       0.00000000
Si      -1.35835996      -1.35785621       1.35774750       0.00000000
Si      -0.00113164       2.71432125       2.71183120       0.00000000
Si       2.71481512       0.00004887      -2.71335202       0.00000000
Si      -2.71323184      -0.00027693       2.71508023       0.00000000
Si       0.00248928      -2.71476926       2.71418156       0.00000000
Si      -2.71541470      -0.00003258      -2.71359397       0.00000000
Si      -2.71486084      -2.71431433      -0.00024195       0.00000000
