10
Lattice="16.28999089631971 0.0 0.0 0.0 16.28999089631971 0.0 0.0 0.0 34.56409401068381" Properties=species:S:1:pos:R:3:initial_magmoms:R:1 pbc="T T T"
Si       1.35488817      -1.35167588       1.35861160       0.00000000
Si      -1.35395964       1.35378371       1.36186063       0.00000000
Si      -1.35858600      -1.35637507      -1.35674514       0.00000000
Si       1.35648459       1.35852410      -1.35691796       0.00000000
Si       0.01446552       2.72445689       2.70001028       0.00000000
Si       2.71296918      -2.71535145       0.00079497       0.00000000
Si       2.71477737       0.00089758      -2.71390505       0.00000000
Si      -0.00073305      -2.71465098      -2.71404331       0.00000000
Si      -2.71551042       0.00083405      -2.71425069       0.00000000
Si      -0.00060273       2.71608383      -2.71431982       0.00000000
