10
Lattice="16.28999089631971 0.0 0.0 0.0 16.28999089631971 0.0 0.0 0.0 34.56409401068381" Properties=species:S:1:pos:R:3:initial_magmoms:R:1 pbc="T T T"
Si      -1.82276955       1.72353087      -0.10638834       0.00000000
Si      -0.88262478      -2.00641391      -1.26152101       0.00000000
Si       1.92883374       0.95425191      -1.40565336       0.00000000
Si      -0.61388865      -0.33101932       2.52508130       0.00000000
Si       1.69901442       0.25500366       2.04014679       0.00000000
Si      -2.19256884      -0.57066802      -2.80017708       0.00000000
Si       0.54084429       2.17525257      -2.84479935       0.00000000
Si      -1.79287740      -3.25347857       0.52769032       0.00000000
Si      -0.78556896       3.46175532      -1.44616250       0.00000000
Si      -3.56687469       0.78560154      -1.40993931       0.00000000
