10
Lattice="16.28999089631971 0.0 0.0 0.0 16.28999089631971 0.0 0.0 0.0 34.56409401068381" Properties=species:S:1:pos:R:3:initial_magmoms:R:1 pbc="T T T"
Si      -0.80304813       1.96539502       1.03543714       0.00000000
Si       2.31290307       0.58602298      -0.48493451       0.00000000
Si       0.29092311      -1.33963584       2.08165829       0.00000000
Si       0.61388865       0.33101932      -2.52508130       0.00000000
Si      -2.51353071      -1.26153670      -0.65568123       0.00000000
Si      -1.20888090       2.05455019      -2.63146964       0.00000000
Si      -2.36662749       2.59278808      -0.56380982       0.00000000
Si      -1.59194025      -2.66468629       1.75488916       0.00000000
Si      -2.13651495       1.09682851       2.78559102       0.00000000
Si      -1.17898875      -2.92245925      -1.99739098       0.00000000
