10
Lattice="16.28999089631971 0.0 0.0 0.0 16.28999089631971 0.0 0.0 0.0 34.56409401068381" Properties=species:S:1:pos:R:3:initial_magmoms:R:1 pbc="T T T"
Si      -1.09506267      -1.65695757       1.47323454       0.00000000
Si       1.61443674       1.10931316       1.50949921       0.00000000
Si      -1.97166015       1.56918638       0.27696539       0.00000000
Si       0.16127100      -0.66580881      -2.61297784       0.00000000
Si      -2.26670463      -1.21255008      -2.64920103       0.00000000
Si      -3.33726714       0.57310175      -1.51629309       0.00000000
Si      -2.47454874      -0.25257287       2.89993744       0.00000000
Si       0.24428484       2.48098655       2.89769423       0.00000000
Si       2.79974601       2.62003799       0.09760906       0.00000000
Si       3.69172125       0.76295355      -1.18160878       0.00000000
