10
Lattice="16.28999089631971 0.0 0.0 0.0 16.28999089631971 0.0 0.0 0.0 34.56409401068381" Properties=species:S:1:pos:R:3:initial_magmoms:R:1 pbc="T T T"
Si      -0.49910931      -2.24327961      -0.26123557       0.00000000
Si       2.19066291       0.64917279       0.58648387       0.00000000
Si      -0.23055237       0.56438334      -2.29488430       0.00000000
Si      -1.36208835       1.06192881       1.66225734       0.00000000
Si      -2.65173507      -1.90988847      -1.39244987       0.00000000
Si       0.01000206       2.94127353       2.06876587       0.00000000
Si       1.45125981      -2.94321204      -1.48853810       0.00000000
Si      -0.83785986       2.86076835      -2.10104876       0.00000000
Si      -2.59981884       0.15498306      -2.55428797       0.00000000
Si      -0.56321046      -3.19533237       1.90973639       0.00000000
