10
Lattice="16.28999089631971 0.0 0.0 0.0 16.28999089631971 0.0 0.0 0.0 34.56409401068381" Properties=species:S:1:pos:R:3:initial_magmoms:R:1 pbc="T T T"
Si      -1.62676827       1.18206756       1.27199393       0.00000000
Si      -0.56022939      -2.29496778      -0.47415051       0.00000000
Si       1.63924641      -0.34311627       1.73418526       0.00000000
Si       0.46296180       1.19309589      -2.04892607       0.00000000
Si       1.26183969      -3.06416529      -1.80144702       0.00000000
Si      -0.57717099       2.30146749       3.02816197       0.00000000
Si      -3.02681232      -0.31778532       2.39691757       0.00000000
Si      -1.57662765       2.13076458      -2.88026213       0.00000000
Si       1.83505221       3.07244061      -1.64241754       0.00000000
Si       1.53802035      -2.56274280       2.64550267       0.00000000
