10
Lattice="16.28999089631971 0.0 0.0 0.0 16.28999089631971 0.0 0.0 0.0 34.56409401068381" Properties=species:S:1:pos:R:3:initial_magmoms:R:1 pbc="T T T"
Si       1.34946360      -1.45484361       1.40959367       0.00000000
Si      -0.03111390      -1.02237669      -2.22426982       0.00000000
Si      -1.55934396       1.24256862       1.42894957       0.00000000
Si       2.08872009      -2.06878113      -1.90479372       0.00000000
Si       0.01040931       2.43168975       2.78041474       0.00000000
Si      -0.12509091       0.89518437      -3.69269161       0.00000000
Si      -2.65144185      -0.38960793       2.74482753       0.00000000
Si       2.24143884      -3.31192804       0.13037584       0.00000000
Si       2.89706247      -0.22915143       2.79371155       0.00000000
Si       3.67489368      -0.24726591      -1.72011766       0.00000000
