10
Lattice="16.28999089631971 0.0 0.0 0.0 16.28999089631971 0.0 0.0 0.0 34.56409401068381" Properties=species:S:1:pos:R:3:initial_magmoms:R:1 pbc="T T T"
Si      -1.81499922      -0.89420697       1.23412311       0.00000000
Si      -1.11524598      -0.48044097      -2.06823739       0.00000000
Si       1.65788217      -1.74843828      -0.16499906       0.00000000
Si       0.87951339       1.90488744       1.19970416       0.00000000
Si      -0.47635218      -2.09313468       2.70079941       0.00000000
Si       0.54169137      -2.04247278      -2.79159516       0.00000000
Si       2.24226963       0.63353439       2.67638678       0.00000000
Si      -2.48464854      -2.65504194      -0.30190751       0.00000000
Si       0.74152080      -3.48594597       1.24881977       0.00000000
Si       3.51399735      -0.77212971       1.19422575       0.00000000
