10
Lattice="16.28999089631971 0.0 0.0 0.0 16.28999089631971 0.0 0.0 0.0 34.56409401068381" Properties=species:S:1:pos:R:3:initial_magmoms:R:1 pbc="T T T"
Si       1.36275624      -1.27135305       1.47668261       0.00000000
Si      -0.87951339      -1.90488744      -1.19970416       0.00000000
Si       1.80564876       1.04985792      -1.26211693       0.00000000
Si      -1.34399016       1.43360145       1.47248307       0.00000000
Si       3.37892067      -0.66849273      -0.92152454       0.00000000
Si       2.63448396      -2.67701715      -0.00547841       0.00000000
Si      -2.69374698       2.73562857       0.05392002       0.00000000
Si       0.00037467      -2.62588284       2.85023283       0.00000000
Si      -2.69451261      -2.79909441       0.03441894       0.00000000
Si      -2.71438641       0.08809632       2.84193744       0.00000000
