10
Lattice="16.28999089631971 0.0 0.0 0.0 16.28999089631971 0.0 0.0 0.0 34.56409401068381" Properties=species:S:1:pos:R:3:initial_magmoms:R:1 pbc="T T T"
Si      -1.37339361      -1.30292307       1.43714127       0.00000000
Si       1.49618763       1.25193537       1.41246249       0.00000000
Si       1.20795237      -1.45951884      -1.55289648       0.00000000
Si      -1.48695120       1.25239149      -1.53084458       0.00000000
Si       2.62386288       2.64948705      -0.18080488       0.00000000
Si       2.57828346      -2.77096158      -0.17748672       0.00000000
Si      -2.64785805       2.73759966       0.02765129       0.00000000
Si      -2.74823703      -2.67506235      -0.16656446       0.00000000
Si       2.57020362      -0.11771154      -2.93217743       0.00000000
Si      -0.14330313       2.59385670      -2.93055291       0.00000000
