10
Lattice="16.28999089631971 0.0 0.0 0.0 16.28999089631971 0.0 0.0 0.0 34.56409401068381" Properties=species:S:1:pos:R:3:initial_magmoms:R:1 pbc="T T T"
Si       2.08072170       1.02394053      -0.39150771       0.00000000
Si      -1.43576802       1.89061740       0.18028642       0.00000000
Si       0.10086768      -1.06396506       2.14978416       0.00000000
Si      -0.74699424      -1.14447024      -2.02003048       0.00000000
Si      -1.27122273      -2.94330978       1.74327562       0.00000000
Si      -2.25847818       1.61746668       2.38613356       0.00000000
Si       2.09632752       2.78291844       1.20919094       0.00000000
Si       2.38187493      -1.71898596       2.37991202       0.00000000
Si      -3.14240616      -1.56129876      -1.42964086       0.00000000
Si      -0.78143130       0.43675119       3.72614967       0.00000000
