10
Lattice="16.28999089631971 0.0 0.0 0.0 16.28999089631971 0.0 0.0 0.0 34.56409401068381" Properties=species:S:1:pos:R:3:initial_magmoms:R:1 pbc="T T T"
Si       1.88374302      -1.19088045       0.57666767       0.00000000
Si      -1.04959728      -1.11939993      -1.75616803       0.00000000
Si      -1.07719254       0.63750915       1.98747108       0.00000000
Si       0.18893142       2.05635186      -1.12115614       0.00000000
Si      -2.15482491       2.53140084      -1.11434701       0.00000000
Si      -2.31925617       0.71851932      -2.62472964       0.00000000
Si      -2.80236870       2.02660632       1.11700845       0.00000000
Si      -2.44964133      -2.61925281      -0.63124440       0.00000000
Si       3.45222567       0.51816861       1.09592434       0.00000000
Si       2.21641740      -2.64458376      -1.29397671       0.00000000
