10
Lattice="16.28999089631971 0.0 0.0 0.0 16.28999089631971 0.0 0.0 0.0 34.56409401068381" Properties=species:S:1:pos:R:3:initial_magmoms:R:1 pbc="T T T"
Si       1.00009197       0.81560772      -1.94309076       0.00000000
Si      -1.56848265      -1.70904906      -0.51925667       0.00000000
Si       1.34363178      -1.42995249       1.34606483       0.00000000
Si      -1.04068665       2.01922695       0.86455217       0.00000000
Si       2.87559225       1.68751368      -0.85369904       0.00000000
Si      -0.32552307      -1.90856898       3.01851858       0.00000000
Si      -3.45222567      -0.51816861      -1.09592434       0.00000000
Si      -1.81851786       2.99947770      -1.10943891       0.00000000
Si       1.58285043      -3.46351464      -0.09923357       0.00000000
Si      -1.65087747      -3.14540352       1.39144751       0.00000000
