10
Lattice="16.28999089631971 0.0 0.0 0.0 16.28999089631971 0.0 0.0 0.0 34.56409401068381" Properties=species:S:1:pos:R:3:initial_magmoms:R:1 pbc="T T T"
Si       1.35692442      -1.35985662       1.36559355       0.00000000
Si      -1.35953082       1.35868374       1.36628484       0.00000000
Si       1.37039625       1.34550513      -1.36945436       0.00000000
Si      -1.35669636      -1.37834577      -1.37903208       0.00000000
Si      -2.70897813       2.71065600       0.00853734       0.00000000
Si      -2.71151937      -2.71634121       0.00777693       0.00000000
Si       2.71612944       2.71248048       0.00549569       0.00000000
Si       2.71476108      -2.71397916       0.00829539       0.00000000
Si       0.02063943       2.64753225      -2.78801742       0.00000000
Si       2.71461447       0.00003258       2.72285716       0.00000000
