10
Lattice="16.28999089631971 0.0 0.0 0.0 16.28999089631971 0.0 0.0 0.0 34.56409401068381" Properties=species:S:1:pos:R:3:initial_magmoms:R:1 pbc="T T T"
Si       1.35870003      -1.35382932      -1.35940658       0.00000000
Si      -1.35795069       1.36068741      -1.35826596       0.00000000
Si      -1.34364807      -1.34146521       1.39970833       0.00000000
Si       1.35091341       1.36840887       1.37782925       0.00000000
Si       2.71350675      -2.71156824      -0.00162451       0.00000000
Si       0.00035838      -2.71153566      -2.71649736       0.00000000
Si      -2.71487511       0.00327429      -2.71601346       0.00000000
Si       2.71518462       0.00268785      -2.71646279       0.00000000
Si      -2.71821456      -2.71373481       0.00183190       0.00000000
Si      -0.00004887       2.71850720      -2.71625541       0.00000000
