10
Lattice="16.28999089631971 0.0 0.0 0.0 16.28999089631971 0.0 0.0 0.0 34.56409401068381" Properties=species:S:1:pos:R:3:initial_magmoms:R:1 pbc="T T T"
Si       1.35728505       1.35733167       1.35861160       0.00000000
Si      -1.35787580      -1.35760860       1.35868073       0.00000000
Si       1.35874627      -1.35951453      -1.35857704       0.00000000
Si      -1.36090574       1.36172997      -1.35906094       0.00000000
Si       2.71437074      -2.71511946       0.00245405       0.00000000
Si       2.71402865       0.00024435       2.71611715       0.00000000
Si      -0.00030750       2.71472850       2.71611715       0.00000000
Si      -0.00044438      -2.71516833       2.71580608       0.00000000
Si      -2.71533779       0.00024435       2.71570238       0.00000000
Si      -2.71585907      -2.71520091       0.00221210       0.00000000
