10
Lattice="16.28999089631971 0.0 0.0 0.0 16.28999089631971 0.0 0.0 0.0 34.56409401068381" Properties=species:S:1:pos:R:3:initial_magmoms:R:1 pbc="T T T"
Si       1.12508514      -2.00316501      -0.29794266       0.00000000
Si      -0.89011818       0.85900428      -2.00257560       0.00000000
Si       1.99101267       1.31713888       0.09933726       0.00000000
Si      -1.85132592       0.11117925       1.59312911       0.00000000
Si      -2.40099939       2.28895418       0.80257871       0.00000000
Si       1.51114185       2.59683192       2.05186402       0.00000000
Si      -0.31969125      -3.46445946      -1.40558423       0.00000000
Si      -2.85174369       2.03870394      -1.49365359       0.00000000
Si      -0.90948699       0.21618459       3.75279860       0.00000000
Si       2.45127033       2.28373161      -2.01284114       0.00000000
