10
Lattice="16.28999089631971 0.0 0.0 0.0 16.28999089631971 0.0 0.0 0.0 34.56409401068381" Properties=species:S:1:pos:R:3:initial_magmoms:R:1 pbc="T T T"
Si      -1.36212093      -1.35011049       1.36474673       0.00000000
Si       1.35355239       1.36757531       1.36633668       0.00000000
Si      -1.34811153       1.35121201      -1.39250172       0.00000000
Si       1.40484960      -1.31402814      -1.41831074       0.00000000
Si       2.70872869      -2.69887362       0.00982658       0.00000000
Si       2.70355356       2.71635310      -0.00112333       0.00000000
Si      -2.70785412      -2.71708584      -0.01020333       0.00000000
Si      -0.00524538      -2.70504753       2.72543218       0.00000000
Si       2.70915732       0.01011366       2.72477546       0.00000000
Si      -2.71826343       2.72288539      -0.00430669       0.00000000
