10
Lattice="16.28999089631971 0.0 0.0 0.0 16.28999089631971 0.0 0.0 0.0 34.56409401068381" Properties=species:S:1:pos:R:3:initial_magmoms:R:1 pbc="T T T"
Si      -0.92507652      -1.76855236      -1.23452644       0.00000000
Si       1.74645090       0.91033407      -1.28550850       0.00000000
Si      -1.67252688       1.78008975       0.17765954       0.00000000
Si       1.32431184       1.06758144       2.70592074       0.00000000
Si      -0.43914582      -0.80671501       3.12680795       0.00000000
Si       0.40682646       2.28152853      -2.64014523       0.00000000
Si      -2.47583565      -1.55863534       1.94758409       0.00000000
Si      -2.33583939      -0.42459396      -2.60672173       0.00000000
Si       1.49436315       3.19945374       1.48335349       0.00000000
Si      -2.11673889      -3.23327897       0.20382458       0.00000000
