10
Lattice="16.28999089631971 0.0 0.0 0.0 16.28999089631971 0.0 0.0 0.0 34.56409401068381" Properties=species:S:1:pos:R:3:initial_magmoms:R:1 pbc="T T T"
Si      -1.35480672       1.34858394       1.34921016       0.00000000
Si       1.35104373       1.36026387      -1.36134217       0.00000000
Si      -1.36073628      -1.35711990      -1.36092740       0.00000000
Si       1.33260345      -1.37902995       1.41225511       0.00000000
Si      -2.65484157      -0.03399723       2.74909132       0.00000000
Si      -2.71925386       2.71059084      -0.01185549       0.00000000
Si       2.71005327       0.00329058      -2.72133633       0.00000000
Si       2.71448415       2.71878471       0.01351457       0.00000000
Si      -0.00470781      -2.71417627      -2.72316823       0.00000000
Si      -0.00423540       2.71753038      -2.72209675       0.00000000
