10
Lattice="16.28999089631971 0.0 0.0 0.0 16.28999089631971 0.0 0.0 0.0 34.56409401068381" Properties=species:S:1:pos:R:3:initial_magmoms:R:1 pbc="T T T"
Si       0.32741271       1.53621216      -1.76301173       0.00000000
Si      -1.53064098       1.14419331       1.38747264       0.00000000
Si       1.98307944       0.07296291       1.32200821       0.00000000
Si      -0.62897319      -2.31676706      -0.26099362       0.00000000
Si       1.15039980      -1.67232326       2.74038116       0.00000000
Si      -0.06589305       2.91173976       1.83449031       0.00000000
Si      -0.79558731      -2.83160159       2.03627561       0.00000000
Si       0.65361996       3.49347195      -0.42320300       0.00000000
Si       1.44669861      -3.08381822      -1.13024651       0.00000000
Si      -2.58532074      -2.00722774      -1.51048632       0.00000000
