10
Lattice="16.28999089631971 0.0 0.0 0.0 16.28999089631971 0.0 0.0 0.0 34.56409401068381" Properties=species:S:1:pos:R:3:initial_magmoms:R:1 pbc="T T T"
Si      -1.95634755       0.30953932      -1.24949270       0.00000000
Si      -0.16661412      -0.51483454       2.29726923       0.00000000
Si       2.07567180      -0.76705116      -0.86925289       0.00000000
Si       0.62897319       2.31676706       0.26099362       0.00000000
Si      -0.44095401      -2.71722480      -0.30682563       0.00000000
Si       1.77937299       0.64444380       3.00137478       0.00000000
Si       1.36733373      -1.46206401      -3.11605851       0.00000000
Si      -1.24095591       1.52383502      -3.20298725       0.00000000
Si       3.07779417      -2.11943067       0.85580745       0.00000000
Si      -3.59670168       1.34361875       0.20693535       0.00000000
