10
Lattice="16.28999089631971 0.0 0.0 0.0 16.28999089631971 0.0 0.0 0.0 34.56409401068381" Properties=species:S:1:pos:R:3:initial_magmoms:R:1 pbc="T T T"
Si       1.69224171      -1.61476158      -0.01842267       0.00000000
Si      -0.84732435       1.13108800       1.89960910       0.00000000
Si      -1.94598711      -1.15927834      -0.70410555       0.00000000
Si       0.83267964       1.74528617      -1.41837295       0.00000000
Si      -1.15039980       1.67232326      -2.74038116       0.00000000
Si       0.92141420       2.64268598       2.03506586       0.00000000
Si      -1.77937299      -0.64444380      -3.00137478       0.00000000
Si      -2.87277408       1.98776281       0.88065904       0.00000000
Si       1.43564163      -2.57671866       2.09856014       0.00000000
Si      -3.66811704      -0.17498229       0.57455926       0.00000000
