10
Lattice="16.28999089631971 0.0 0.0 0.0 16.28999089631971 0.0 0.0 0.0 34.56409401068381" Properties=species:S:1:pos:R:3:initial_magmoms:R:1 pbc="T T T"
Si       1.35621834      -1.35793440       1.35484411       0.00000000
Si      -1.35492075       1.35762489       1.35674514       0.00000000
Si      -1.35754344      -1.35684297      -1.35709078       0.00000000
Si       1.35748685       1.35764118      -1.35667601       0.00000000
Si      -0.01239669       2.71529865       2.70429623       0.00000000
Si       0.01019754      -2.72041371       2.69980289       0.00000000
Si       2.71547199      -0.00579924       2.71055233       0.00000000
Si       2.71298125      -2.71407690       0.00038021       0.00000000
Si      -2.71494027      -2.71362078       0.00093323       0.00000000
Si      -0.00008145      -2.71469592      -2.71411243       0.00000000
