10
Lattice="16.28999089631971 0.0 0.0 0.0 16.28999089631971 0.0 0.0 0.0 34.56409401068381" Properties=species:S:1:pos:R:3:initial_magmoms:R:1 pbc="T T T"
Si       0.88302293       1.96820667       0.84550734       0.00000000
Si       1.68215005      -0.94789881      -1.35180247       0.00000000
Si      -1.03581594       1.58441427      -1.44343194       0.00000000
Si      -0.17005131      -2.13187230       1.22256725       0.00000000
Si       2.38455368      -2.59895547       0.16493995       0.00000000
Si       0.25208775      -2.28911967      -2.76886199       0.00000000
Si      -3.16689003      -1.41936399      -1.30569395       0.00000000
Si      -2.62537785       2.67098985      -0.13424702       0.00000000
Si      -2.50176933       0.34129179      -2.78441584       0.00000000
Si       1.71662784       1.66949694       2.93362912       0.00000000
