10
Lattice="16.28999089631971 0.0 0.0 0.0 16.28999089631971 0.0 0.0 0.0 34.56409401068381" Properties=species:S:1:pos:R:3:initial_magmoms:R:1 pbc="T T T"
Si      -1.35742615      -1.36199061       1.35152596       0.00000000
Si       1.35759231      -1.35505107      -1.35871529       0.00000000
Si      -1.35798327       1.35979146      -1.35864617       0.00000000
Si       1.37344248       1.35407367       1.35190616       0.00000000
Si      -2.74075082      -0.02547756       2.65607929       0.00000000
Si       2.71287144      -2.71231758       0.00203928       0.00000000
Si       2.71093293       2.71495656       0.00210841       0.00000000
Si      -0.00107514      -2.71303434      -2.71570238       0.00000000
Si      -2.71405033       2.71511946       0.00183190       0.00000000
Si       2.71441899       0.00216657      -2.71566782       0.00000000
