10
Lattice="16.28999089631971 0.0 0.0 0.0 16.28999089631971 0.0 0.0 0.0 34.56409401068381" Properties=species:S:1:pos:R:3:initial_magmoms:R:1 pbc="T T T"
Si      -1.34363178       1.42995249      -1.34606483       0.00000000
Si       1.91120796       1.07738802       0.93333475       0.00000000
Si      -1.66915485      -0.47861649       1.67245375       0.00000000
Si       0.23921865      -2.03356215      -1.44529840       0.00000000
Si      -2.99450925      -1.71545103       0.04538268       0.00000000
Si      -2.91211443      -0.27909657      -1.86532150       0.00000000
Si       1.80048483       3.31038864       0.17693370       0.00000000
Si      -1.60482564      -3.45859506      -0.76023767       0.00000000
Si       3.95812695      -0.06343326       0.54310591       0.00000000
Si      -0.34353981       2.24556021      -3.28915559       0.00000000
