10
Lattice="16.28999089631971 0.0 0.0 0.0 16.28999089631971 0.0 0.0 0.0 34.56409401068381" Properties=species:S:1:pos:R:3:initial_magmoms:R:1 pbc="T T T"
Si      -0.81582275       2.10440736      -0.42064526       0.00000000
Si      -2.09648716      -1.07714367       0.10815111       0.00000000
Si       0.73469529       0.11231955       2.26163363       0.00000000
Si       1.35526284      -1.05757938      -1.77051214       0.00000000
Si      -1.31852726      -2.98497960       1.22678407       0.00000000
Si      -0.31988673      -1.87369209       3.08519276       0.00000000
Si       1.11446406       3.46193451      -0.64220123       0.00000000
Si       3.13020495      -0.15509709       2.08290260       0.00000000
Si       2.34867591      -2.90014128      -0.75484567       0.00000000
Si      -2.70250190      -1.69696188      -2.13170713       0.00000000
