10
Lattice="16.28999089631971 0.0 0.0 0.0 16.28999089631971 0.0 0.0 0.0 34.56409401068381" Properties=species:S:1:pos:R:3:initial_magmoms:R:1 pbc="T T T"
Si       1.96140627       0.14157639      -1.20639125       0.00000000
Si      -1.33348311      -1.93872177      -0.41473480       0.00000000
Si       0.72435114       1.23703395       1.96251579       0.00000000
Si      -1.15085592       2.03905092       0.77513481       0.00000000
Si      -1.43824410      -2.06663085       2.11394117       0.00000000
Si      -0.47517930      -0.27982962       3.44043377       0.00000000
Si       2.02113844      -2.17059363      -1.92349291       0.00000000
Si       1.15913191       1.27841055      -3.15542703       0.00000000
Si      -1.30357467       3.28219784      -1.26003475       0.00000000
Si      -3.22395390      -1.19896029      -1.79436138       0.00000000
