10
Lattice="16.28999089631971 0.0 0.0 0.0 16.28999089631971 0.0 0.0 0.0 34.56409401068381" Properties=species:S:1:pos:R:3:initial_magmoms:R:1 pbc="T T T"
Si       1.35604487      -1.35535958      -1.35722904       0.00000000
Si       1.36356923       1.33302540       1.37378525       0.00000000
Si      -1.36084924       1.35691306      -1.35643406       0.00000000
Si      -1.35125443      -1.36312991       1.37872792       0.00000000
Si      -0.01001728       2.69541674       2.69724515       0.00000000
Si       2.71237471       0.00041004      -2.71438895       0.00000000
Si       2.71415032       2.71351493       0.00428595       0.00000000
Si      -0.00248928       2.71476926      -2.71418156       0.00000000
Si      -0.00220389      -2.71502072      -2.71400874       0.00000000
Si       2.71314034      -2.71687778       0.00162451       0.00000000
