10
Lattice="16.28999089631971 0.0 0.0 0.0 16.28999089631971 0.0 0.0 0.0 34.56409401068381" Properties=species:S:1:pos:R:3:initial_magmoms:R:1 pbc="T T T"
Si       1.89666099       1.32760242      -0.46188025       0.00000000
Si      -1.70151398       1.68824673       0.21035719       0.00000000
Si      -0.38567080      -1.13005359      -2.10073768       0.00000000
Si       0.72465250      -1.49265270       2.95322697       0.00000000
Si      -1.43298962       1.88116920       2.58705475       0.00000000
Si      -1.32226649      -0.35183142       3.34345581       0.00000000
Si       3.51675036       0.20025297       0.83081759       0.00000000
Si      -2.75085062      -0.93035448      -2.24556131       0.00000000
Si      -3.57701426       0.81634077      -0.87903453       0.00000000
Si       2.32313319       1.00333368      -2.80325328       0.00000000
