10
Lattice="16.28999089631971 0.0 0.0 0.0 16.28999089631971 0.0 0.0 0.0 34.56409401068381" Properties=species:S:1:pos:R:3:initial_magmoms:R:1 pbc="T T T"
Si       1.35747828      -1.35448092      -1.35899181       0.00000000
Si      -1.35709546       1.36151820      -1.35885355       0.00000000
Si      -1.35406227      -1.34734590       1.38557161       0.00000000
Si       1.36625859       1.35146727       1.39289920       0.00000000
Si       0.16342128      -2.63746503       2.74200567       0.00000000
Si       2.71085148      -2.71494027       0.00231580       0.00000000
Si      -0.00019548      -2.71309950      -2.71559869       0.00000000
Si      -2.71413178      -2.71477737       0.00203928       0.00000000
Si       2.71419093       0.00206883      -2.71552956       0.00000000
Si      -2.71314034       2.71687778      -0.00162451       0.00000000
