10
Lattice="10.86 0.0 0.0 0.0 10.86 0.0 0.0 0.0 10.86" Properties=species:S:1:pos:R:3:initial_magmoms:R:1 pbc="T T T"
Si       1.35750000       1.35750000       1.35750000       0.00000000
Si      -1.35750000      -1.35750000       1.35750000       0.00000000
Si      -1.35750000       1.35750000      -1.35750000       0.00000000
Si       1.35750000      -1.35750000      -1.35750000       0.00000000
Si      -0.01454154      -2.66342586       2.47804566       0.00000000
Si       2.45364324      -2.83643652       0.35731572       0.00000000
Si       0.06265134       2.59901520       2.73332082       0.00000000
Si      -0.29951880       2.63277894      -2.73197418       0.00000000
Si       0.18931152      -2.75278194      -2.64714672       0.00000000
Si      -2.71500000       0.00000000       2.71500000       0.00000000
