10
Lattice="16.28999089631971 0.0 0.0 0.0 16.28999089631971 0.0 0.0 0.0 34.376317263855086" Properties=species:S:1:pos:R:3:initial_magmoms:R:1 pbc="T T T"
Si      -0.98984556       1.47028653       1.49953017       0.00000000
Si       1.34648253      -1.29349116       1.52565619       0.00000000
Si       0.67204395       0.56571912      -2.27206958       0.00000000
Si       1.94520519      -1.41610599      -2.06533030       0.00000000
Si       1.65087747      -2.84174163      -0.16084688       0.00000000
Si      -1.50998526       3.19160196       0.06476502       0.00000000
Si      -2.33607397       0.00798210       2.79144244       0.00000000
Si      -0.50883444      -3.74163381      -0.73661614       0.00000000
Si       0.46960812       2.69241120       2.89834597       0.00000000
Si       2.26230633       2.30654997      -2.34477553       0.00000000
