10
Lattice="16.28999089631971 0.0 0.0 0.0 16.28999089631971 0.0 0.0 0.0 34.376317263855086" Properties=species:S:1:pos:R:3:initial_magmoms:R:1 pbc="T T T"
Si       1.35767376       1.35528565      -1.35676525       0.00000000
Si      -1.35747828       1.35728932       1.35748715       0.00000000
Si      -1.35822762      -1.35782406      -1.35631836       0.00000000
Si       1.35707103      -1.35738715       1.35800280       0.00000000
Si       2.71340901       0.00427613      -2.71397739       0.00000000
Si       2.71252935      -0.00116473       2.71511181       0.00000000
Si       2.71446786      -2.71456627       0.00010313       0.00000000
Si      -0.00161271       2.71466986       2.71469929       0.00000000
Si       2.71497285       2.71476760       0.00013751       0.00000000
Si       0.00008145      -2.71529932      -2.71463054       0.00000000
