10
Lattice="16.28999089631971 0.0 0.0 0.0 16.28999089631971 0.0 0.0 0.0 34.376317263855086" Properties=species:S:1:pos:R:3:initial_magmoms:R:1 pbc="T T T"
Si       0.86278356       1.84918541       1.20911888       0.00000000
Si      -1.38481290       1.28520769      -1.59867153       0.00000000
Si       1.47067749      -1.67413700      -1.27106504       0.00000000
Si      -1.24613613      -0.84051254       2.15464002       0.00000000
Si      -0.90720639       1.39850627       2.73178433       0.00000000
Si       0.87118920      -1.88372414       2.66035030       0.00000000
Si       1.76261058      -3.13986233       0.69192690       0.00000000
Si       0.33568803       2.31393911      -2.90015963       0.00000000
Si      -2.40323112      -0.49281878      -2.83034129       0.00000000
Si       1.92722103       3.32171996      -1.44476867       0.00000000
