10
Lattice="16.28999089631971 0.0 0.0 0.0 16.28999089631971 0.0 0.0 0.0 34.376317263855086" Properties=species:S:1:pos:R:3:initial_magmoms:R:1 pbc="T T T"
Si      -2.31159987       0.34990920      -0.00343763       0.00000000
Si       0.90888426       2.14858584      -0.55699978       0.00000000
Si       0.59733801      -0.52387500       2.27853233       0.00000000
Si       0.31307751      -2.07261647      -1.29251588       0.00000000
Si       3.16130256       1.53960048      -0.25001910       0.00000000
Si      -3.01156488      -1.05301492       1.79382599       0.00000000
Si       1.49446089      -3.33929429       0.34665098       0.00000000
Si       0.35730486      -2.88167561       2.35948861       0.00000000
Si      -0.61649505       0.95381208       3.67881802       0.00000000
Si      -3.26671515      -0.27717435      -2.06189266       0.00000000
