10
Lattice="16.28999089631971 0.0 0.0 0.0 16.28999089631971 0.0 0.0 0.0 34.376317263855086" Properties=species:S:1:pos:R:3:initial_magmoms:R:1 pbc="T T T"
Si      -1.33514469      -1.35498591      -1.37082517       0.00000000
Si       1.23000903      -1.50529374       1.31833250       0.00000000
Si       1.38074040       1.36137159      -1.37055016       0.00000000
Si      -1.50048819       1.22289030       1.48987042       0.00000000
Si       2.75224437      -0.20199600       2.47227737       0.00000000
Si      -2.67603975       2.70770751      -0.00443455       0.00000000
Si      -2.69863398      -2.70475902       0.01020977       0.00000000
Si      -2.69226459      -0.00135207      -2.72893109       0.00000000
Si       2.70738171       2.72502378      -0.02217274       0.00000000
Si       0.02099781      -2.71472850      -2.72893109       0.00000000
