10
Lattice="16.28999089631971 0.0 0.0 0.0 16.28999089631971 0.0 0.0 0.0 34.376317263855086" Properties=species:S:1:pos:R:3:initial_magmoms:R:1 pbc="T T T"
Si      -0.13520700       0.83175111      -2.22579903       0.00000000
Si       2.16839448      -0.88570359       0.51554192       0.00000000
Si      -0.51031683       1.98446409       1.27604961       0.00000000
Si      -1.00268208      -2.12573097       0.60206716       0.00000000
Si      -0.43494300       1.24027173       3.45454681       0.00000000
Si       0.21115098      -3.60341805      -0.79821853       0.00000000
Si      -0.04880484      -2.45998548       2.76488874       0.00000000
Si       2.08554354      -1.40706504       2.79018973       0.00000000
Si       0.52269723      -0.93095721      -3.63375065       0.00000000
Si       1.36019871       2.71249677      -2.30403958       0.00000000
