10
Lattice="16.28999089631971 0.0 0.0 0.0 16.28999089631971 0.0 0.0 0.0 34.376317263855086" Properties=species:S:1:pos:R:3:initial_magmoms:R:1 pbc="T T T"
Si      -1.43969391      -0.51658848      -1.72393890       0.00000000
Si      -0.58091769       1.32853095       1.82435218       0.00000000
Si       1.73628594      -1.41921738       0.79780602       0.00000000
Si       1.29630933       1.84728600      -1.72576084       0.00000000
Si      -2.40526737       1.68397875      -1.90895234       0.00000000
Si      -2.54027889      -2.45001600       0.19584199       0.00000000
Si       1.50819336       2.49308676       2.02125983       0.00000000
Si       2.79073764       2.20077900       0.01182546       0.00000000
Si       3.58616205      -0.02705769       0.35919834       0.00000000
Si       1.86277779      -3.01443192      -0.84435158       0.00000000
