10
Lattice="16.28999089631971 0.0 0.0 0.0 16.28999089631971 0.0 0.0 0.0 34.376317263855086" Properties=species:S:1:pos:R:3:initial_magmoms:R:1 pbc="T T T"
Si       0.94659561      -1.52855586      -1.46745705       0.00000000
Si       1.38719124       1.08774846       1.55281349       0.00000000
Si      -0.91377126       1.72778256      -1.31791999       0.00000000
Si      -1.59918930      -0.67173444       1.63077903       0.00000000
Si      -0.07977213       2.84910471       2.02830698       0.00000000
Si      -2.01966678       1.55784528       2.40166837       0.00000000
Si      -0.60005844      -3.31985313      -1.27195883       0.00000000
Si       1.42615692      -0.14814126      -3.31817588       0.00000000
Si       1.98177624      -0.63524484       2.96392773       0.00000000
Si       0.03028311       3.61937736      -0.28563298       0.00000000
