10
Lattice="16.28999089631971 0.0 0.0 0.0 16.28999089631971 0.0 0.0 0.0 34.376317263855086" Properties=species:S:1:pos:R:3:initial_magmoms:R:1 pbc="T T T"
Si      -0.30439494       1.54825047       1.68650307       0.00000000
Si       0.29432772       1.42563564      -1.90448342       0.00000000
Si      -2.15971191      -0.89989218      -0.57576926       0.00000000
Si       2.09225502      -1.12058910       0.71299959       0.00000000
Si      -1.65087747       2.84174163       0.16084688       0.00000000
Si      -1.36252818       0.04782744       3.10884603       0.00000000
Si       2.22985665      -2.42968608      -1.28698128       0.00000000
Si       3.39908769       0.97029756       0.43919207       0.00000000
Si      -3.17690838      -0.75852756       1.66439908       0.00000000
Si       2.48617980       2.24847612      -1.48966416       0.00000000
