10
Lattice="16.28999089631971 0.0 0.0 0.0 16.28999089631971 0.0 0.0 0.0 34.376317263855086" Properties=species:S:1:pos:R:3:initial_magmoms:R:1 pbc="T T T"
Si      -1.35935163      -1.34745993       1.37342402       0.00000000
Si       1.35755973       1.36638891       1.37283962       0.00000000
Si      -1.27224900       1.42021107      -1.40783473       0.00000000
Si       1.26640089      -1.34853507      -1.55758149       0.00000000
Si       2.08803591       0.52883856      -2.79365628       0.00000000
Si       0.35062596       2.31601446      -2.87935648       0.00000000
Si      -0.39537459      -2.56569129      -2.78052452       0.00000000
Si       2.70606222      -2.69073333      -0.00830532       0.00000000
Si      -2.72754873      -2.68205076       0.00557240       0.00000000
Si       2.70404226       2.72932434       0.01574092       0.00000000
