10
Lattice="16.28999089631971 0.0 0.0 0.0 16.28999089631971 0.0 0.0 0.0 34.376317263855086" Properties=species:S:1:pos:R:3:initial_magmoms:R:1 pbc="T T T"
Si      -1.35583299      -1.35782037      -1.35631836       0.00000000
Si       1.35710361       1.35727978      -1.35649024       0.00000000
Si       1.35764118      -1.35725022       1.35717776       0.00000000
Si      -1.35746199       1.35724406       1.35738402       0.00000000
Si       2.71256193      -0.00213399       2.71359925       0.00000000
Si      -0.00158013       2.71382670       2.71421802       0.00000000
Si      -0.00149868      -2.71404432      -2.71421802       0.00000000
Si       2.71461447      -2.71438641       0.00013751       0.00000000
Si      -2.71486697      -2.71487511      -0.00006875       0.00000000
Si       2.71541268      -0.00019548      -2.71480242       0.00000000
