10
Lattice="16.28999089631971 0.0 0.0 0.0 16.28999089631971 0.0 0.0 0.0 34.376317263855086" Properties=species:S:1:pos:R:3:initial_magmoms:R:1 pbc="T T T"
Si       1.35492075       1.35511623       1.35642148       0.00000000
Si       1.35697329      -1.35713619      -1.35704026       0.00000000
Si      -1.35764118       1.35725022      -1.35717776       0.00000000
Si      -1.35876519      -1.35910728       1.35776216       0.00000000
Si      -2.71347417      -0.00057015      -2.71349612       0.00000000
Si      -0.00057015      -2.71404432      -2.71404614       0.00000000
Si       2.71399545       0.00024435      -2.71411489       0.00000000
Si      -0.00053757       2.71453000      -2.71366800       0.00000000
Si      -2.71510317       2.71449428       0.00020626       0.00000000
Si       2.71479366      -2.71492398       0.00017188       0.00000000
