10
Lattice="16.28999089631971 0.0 0.0 0.0 16.28999089631971 0.0 0.0 0.0 34.376317263855086" Properties=species:S:1:pos:R:3:initial_magmoms:R:1 pbc="T T T"
Si      -1.35697329       1.35713619       1.35704026       0.00000000
Si      -1.35754344      -1.35690813      -1.35700588       0.00000000
Si       1.35702216       1.35738054      -1.35707464       0.00000000
Si       1.35782037      -1.35778779       1.35721214       0.00000000
Si      -0.00205254       2.71225242       2.71346174       0.00000000
Si      -2.71461447       2.71438641      -0.00013751       0.00000000
Si       0.00079821       2.71419093      -2.71493993       0.00000000
Si      -0.00050499      -2.71627605       2.71342737       0.00000000
Si      -2.71492398      -2.71503801      -0.00013751       0.00000000
Si       2.71518462       2.71492398      -0.00020626       0.00000000
