10
Lattice="16.28999089631971 0.0 0.0 0.0 16.28999089631971 0.0 0.0 0.0 34.376317263855086" Properties=species:S:1:pos:R:3:initial_magmoms:R:1 pbc="T T T"
Si      -0.79848693      -1.69823250       1.46181933       0.00000000
Si      -2.11732533       1.04321160      -0.50571029       0.00000000
Si       1.80139707       1.48678830       0.84081081       0.00000000
Si       0.89142138      -1.25613819      -1.96842340       0.00000000
Si      -0.87118920       1.88372414      -2.66035030       0.00000000
Si      -0.92444121      -2.89097001      -2.01012190       0.00000000
Si      -2.22068538      -2.98185192       0.07243094       0.00000000
Si      -1.77839559       3.28223042       0.07143403       0.00000000
Si       0.89990847      -3.24641781       1.72318262       0.00000000
Si       2.98278045       0.22011048       2.47997767       0.00000000
