10
Lattice="16.28999089631971 0.0 0.0 0.0 16.28999089631971 0.0 0.0 0.0 34.376317263855086" Properties=species:S:1:pos:R:3:initial_magmoms:R:1 pbc="T T T"
Si       0.03614751      -2.20423248      -0.81568171       0.00000000
Si      -0.27101673       0.19007172       2.34735376       0.00000000
Si       1.88892324       1.42408809      -0.20718618       0.00000000
Si      -1.83860343       0.69558300      -1.50994620       0.00000000
Si      -2.00842668       1.97724762       2.26165355       0.00000000
Si      -3.01156488       2.22927021       0.06964646       0.00000000
Si       0.94905540      -3.48241104       1.11317453       0.00000000
Si       1.36322865       3.16028511      -1.68316856       0.00000000
Si       3.63372885       0.26598312      -1.27519020       0.00000000
Si      -3.42886581      -1.04524785      -1.43724025       0.00000000
