10
Lattice="16.28999089631971 0.0 0.0 0.0 16.28999089631971 0.0 0.0 0.0 34.376317263855086" Properties=species:S:1:pos:R:3:initial_magmoms:R:1 pbc="T T T"
Si       1.03667931       1.63891314       1.34998077       0.00000000
Si      -1.62287496      -0.89580339       1.47152175       0.00000000
Si      -1.00313820       0.25202259      -2.19200710       0.00000000
Si       1.73740995      -1.78717590       0.08570021       0.00000000
Si       2.00842668      -1.97724762      -2.26165355       0.00000000
Si      -0.35062596      -2.31601446       2.87935648       0.00000000
Si      -3.08232864      -2.11792806       0.07270595       0.00000000
Si       2.72145627       2.57912144      -0.00292199       0.00000000
Si       2.35341630       0.41330988       2.89509741       0.00000000
Si      -3.60246834      -0.39661263      -1.36205920       0.00000000
