10
Lattice="16.28999089631971 0.0 0.0 0.0 16.28999089631971 0.0 0.0 0.0 34.376317263855086" Properties=species:S:1:pos:R:3:initial_magmoms:R:1 pbc="T T T"
Si       1.35545832       1.35622242       1.35710901       0.00000000
Si      -1.35707103       1.35738715      -1.35800280       0.00000000
Si       1.35739683      -1.35717912      -1.35789967       0.00000000
Si      -1.35984033      -1.35985068       1.35576833       0.00000000
Si       0.00060273       2.71267280      -2.71476804       0.00000000
Si      -2.71454931       2.71467647      -0.00051565       0.00000000
Si       2.71344159       0.00005867      -2.71579933       0.00000000
Si      -0.00267156      -2.71105731       2.71820568       0.00000000
Si      -0.00076563      -2.71472256      -2.71476804       0.00000000
Si      -2.71529865      -0.00043691      -2.71432115       0.00000000
