10
Lattice="16.28999089631971 0.0 0.0 0.0 16.28999089631971 0.0 0.0 0.0 34.376317263855086" Properties=species:S:1:pos:R:3:initial_magmoms:R:1 pbc="T T T"
Si      -2.25241830       0.60898536      -0.30698068       0.00000000
Si       0.82679895      -1.80068031       1.31963880       0.00000000
Si       0.01000206      -1.12831056      -2.09922536       0.00000000
Si       1.54425942       1.82500128       0.37683340       0.00000000
Si      -3.16130256      -1.53960048       0.25001910       0.00000000
Si       2.31301710      -1.62647505      -2.30998668       0.00000000
Si      -0.36527067      -1.66179177       3.28641214       0.00000000
Si       3.01700574      -1.14948756       1.90699289       0.00000000
Si       2.38611033       2.41626312      -1.74239899       0.00000000
Si      -2.50413138       1.49850081      -2.52528568       0.00000000
