10
Lattice="16.28999089631971 0.0 0.0 0.0 16.28999089631971 0.0 0.0 0.0 34.376317263855086" Properties=species:S:1:pos:R:3:initial_magmoms:R:1 pbc="T T T"
Si      -0.31785048       2.05952841       1.00289524       0.00000000
Si       0.08285094       0.52136145      -2.27464781       0.00000000
Si      -2.13434838      -1.05292044      -0.02530098       0.00000000
Si       2.06229771      -0.85243941       0.83754506       0.00000000
Si       0.32430132      -1.79466930      -2.83054755       0.00000000
Si       1.21305114       3.37123179      -0.29092694       0.00000000
Si       1.61502318       2.27515914      -2.34680374       0.00000000
Si      -2.52048654       2.64733677       0.66435708       0.00000000
Si      -2.08554354       1.40706504      -2.79018973       0.00000000
Si      -3.58880103       0.56778795       1.01389567       0.00000000
