10
Lattice="16.28999089631971 0.0 0.0 0.0 16.28999089631971 0.0 0.0 0.0 34.376317263855086" Properties=species:S:1:pos:R:3:initial_magmoms:R:1 pbc="T T T"
Si      -0.86918553      -1.66243101       1.61163282       0.00000000
Si      -1.74689073       1.85437541       0.13468649       0.00000000
Si       1.83045843       0.95059806       1.61074247       0.00000000
Si      -0.57099708      -1.27790556      -2.33123126       0.00000000
Si       1.28645388       1.86234122      -1.96381697       0.00000000
Si      -2.11493070      -0.31143615       3.03270588       0.00000000
Si      -2.73093705      -2.51192193       0.22330868       0.00000000
Si      -1.95722721       2.25367589      -2.34099414       0.00000000
Si      -3.43166769       0.91416711       1.48758925       0.00000000
Si       0.60448932       2.39367215       3.02251330       0.00000000
