10
Lattice="16.28999089631971 0.0 0.0 0.0 16.28999089631971 0.0 0.0 0.0 34.376317263855086" Properties=species:S:1:pos:R:3:initial_magmoms:R:1 pbc="T T T"
Si      -1.35638685       1.35347094      -1.35786529       0.00000000
Si      -1.36006839      -1.35746199       1.35178068       0.00000000
Si       1.35855342      -1.36029645      -1.35631836       0.00000000
Si       1.37002158       1.35182565       1.36484369       0.00000000
Si      -0.05849739       2.70135441       2.64309338       0.00000000
Si      -2.71282257      -0.00283446      -2.71335861       0.00000000
Si       0.00234576       2.71270854      -2.71359925       0.00000000
Si      -2.71197549       2.71560816       0.00189070       0.00000000
Si       2.71829601       2.70997182       0.00058440       0.00000000
Si       2.71378368      -2.71555929       0.00402203       0.00000000
