10
Lattice="16.28999089631971 0.0 0.0 0.0 16.28999089631971 0.0 0.0 0.0 34.376317263855086" Properties=species:S:1:pos:R:3:initial_magmoms:R:1 pbc="T T T"
Si      -1.53217224      -1.75379769       0.07215593       0.00000000
Si       2.14755957      -0.92522313       0.22368682       0.00000000
Si      -0.16825941       1.15878915      -2.05347046       0.00000000
Si      -0.40197204       1.09607265       2.05587680       0.00000000
Si       0.61880823      -0.58303539      -3.39332255       0.00000000
Si      -1.61502318      -2.27515914       2.34680374       0.00000000
Si       2.61029331      -1.22561073      -2.23827764       0.00000000
Si      -3.70056672      -0.86809410      -0.44338599       0.00000000
Si       1.42289892       2.92633560      -2.09540959       0.00000000
Si      -1.93287366      -0.21563073       3.34969898       0.00000000
