10
Lattice="16.28999089631971 0.0 0.0 0.0 16.28999089631971 0.0 0.0 0.0 34.376317263855086" Properties=species:S:1:pos:R:3:initial_magmoms:R:1 pbc="T T T"
Si       1.97164386       1.26674298       0.00106567       0.00000000
Si      -0.06887412      -0.17998821      -2.38351767       0.00000000
Si      -2.02061160       1.11273732       0.73029089       0.00000000
Si       0.52794261      -1.83839166       1.53332211       0.00000000
Si      -2.08541322       2.28952692      -1.31843563       0.00000000
Si      -2.27151018       0.40782015      -2.72205583       0.00000000
Si       3.04056108       0.42779169       1.88609208       0.00000000
Si      -1.29774285      -3.33918936       1.12634066       0.00000000
Si       3.09778785       0.87399108      -2.04247003       0.00000000
Si       1.68860511       3.56263929      -0.23176526       0.00000000
