10
Lattice="16.28999089631971 0.0 0.0 0.0 16.28999089631971 0.0 0.0 0.0 34.376317263855086" Properties=species:S:1:pos:R:3:initial_magmoms:R:1 pbc="T T T"
Si       1.27412235       1.38225537      -1.40211593       0.00000000
Si       1.38280923      -1.26900729       1.41281586       0.00000000
Si      -1.34995230       1.43415531       1.39239632       0.00000000
Si      -0.73085085      -2.08269279      -1.11942930       0.00000000
Si       0.37411614       0.63964314      -3.49388162       0.00000000
Si      -1.21795443      -1.32338331      -3.28738297       0.00000000
Si       0.01658322      -2.63127483       2.76895203       0.00000000
Si       2.77369830      -2.62822860       0.04724684       0.00000000
Si      -2.76061743      -2.67968871       0.03660049       0.00000000
Si      -2.69832447       0.08801487       2.77242404       0.00000000
