10
Lattice="16.28999089631971 0.0 0.0 0.0 16.28999089631971 0.0 0.0 0.0 34.376317263855086" Properties=species:S:1:pos:R:3:initial_magmoms:R:1 pbc="T T T"
Si       1.49442831       0.35349300       1.73758630       0.00000000
Si      -1.88571411       1.47152457      -0.14149300       0.00000000
Si       1.10767113      -0.32658192      -2.24690610       0.00000000
Si      -1.29630933      -1.84728600       1.72576084       0.00000000
Si      -2.73600324      -2.36387448       0.00182195       0.00000000
Si       2.28985272      -1.87434369       2.08495918       0.00000000
Si      -3.70157670      -0.16330725      -0.18319150       0.00000000
Si       2.77141770       2.26176876       1.03974667       0.00000000
Si       0.21188403       0.64580076       3.74702068       0.00000000
Si      -0.60375627      -1.26407142      -3.66104546       0.00000000
