10
Lattice="16.28999089631971 0.0 0.0 0.0 16.28999089631971 0.0 0.0 0.0 34.376317263855086" Properties=species:S:1:pos:R:3:initial_magmoms:R:1 pbc="T T T"
Si      -1.35658732       1.35672894       1.36164669       0.00000000
Si       1.36039908      -1.35896067       1.36092478       0.00000000
Si      -1.36571884      -1.35721764      -1.36175669       0.00000000
Si       1.37279577       1.36225125      -1.38243062       0.00000000
Si       0.00865651      -2.66382225      -2.76176393       0.00000000
Si       2.71714431       2.70993924       0.00254385       0.00000000
Si      -2.71279229      -2.71519765       0.00220009       0.00000000
Si      -2.71424210       2.71471221       0.00574085       0.00000000
Si      -2.71310180      -0.00112401       2.71834318       0.00000000
Si       0.00173488       2.71376739       2.71851506       0.00000000
