10
Lattice="16.28999089631971 0.0 0.0 0.0 16.28999089631971 0.0 0.0 0.0 34.376317263855086" Properties=species:S:1:pos:R:3:initial_magmoms:R:1 pbc="T T T"
Si      -2.17684899       0.48109257      -0.68567041       0.00000000
Si      -0.16128729      -0.38651283       2.29675179       0.00000000
Si       0.63750915      -1.83062133      -1.35353387       0.00000000
Si       1.43065296       1.78748541      -0.64967838       0.00000000
Si      -1.69728768       1.86150717      -2.53638923       0.00000000
Si      -1.23300639      -2.55865401       2.22655531       0.00000000
Si       0.61991595      -0.88624116      -3.56293539       0.00000000
Si      -3.12344460       2.00964843       0.78178664       0.00000000
Si       2.80961775      -2.51623485      -0.65957877       0.00000000
Si       1.94831658      -0.34062390       3.28373079       0.00000000
