10
Lattice="16.28999089631971 0.0 0.0 0.0 16.28999089631971 0.0 0.0 0.0 34.376317263855086" Properties=species:S:1:pos:R:3:initial_magmoms:R:1 pbc="T T T"
Si       0.65518380      -2.24384976       0.01130981       0.00000000
Si      -1.51482339      -0.76448970      -1.66814610       0.00000000
Si       1.72717983       1.66260627      -0.31540289       0.00000000
Si      -1.02356586      -0.05866029       2.24085587       0.00000000
Si      -2.91988476      -1.97610732      -0.22048982       0.00000000
Si       1.57516155      -2.47951719      -2.13012969       0.00000000
Si       2.42932770      -2.28692052       1.48148260       0.00000000
Si      -3.21541794      -0.88150077       1.82603662       0.00000000
Si      -1.34469063      -3.56003289       0.39481222       0.00000000
Si      -2.10940839       0.95850360      -3.07926034       0.00000000
