10
Lattice="16.28999089631971 0.0 0.0 0.0 16.28999089631971 0.0 0.0 0.0 34.376317263855086" Properties=species:S:1:pos:R:3:initial_magmoms:R:1 pbc="T T T"
Si       0.71458040       2.00956698       1.11586138       0.00000000
Si      -1.99158349      -0.72220086       1.14734667       0.00000000
Si       0.94478416       0.27909657      -2.31632847       0.00000000
Si       1.67590543      -1.85937318      -0.30503777       0.00000000
Si       2.05539727       0.58828077       2.52959510       0.00000000
Si      -0.68311734      -2.13118812       2.55026902       0.00000000
Si       3.40370428      -0.84633066       1.02169085       0.00000000
Si       0.69125800      -3.43779273       1.15026178       0.00000000
Si      -0.95101087       1.22658813      -3.41011474       0.00000000
Si       1.66552870      -2.10212676      -2.79787219       0.00000000
