10
Lattice="16.28999089631971 0.0 0.0 0.0 16.28999089631971 0.0 0.0 0.0 34.376317263855086" Properties=species:S:1:pos:R:3:initial_magmoms:R:1 pbc="T T T"
Si      -1.35751086      -1.35681039      -1.35786529       0.00000000
Si       1.35760860       1.35839052      -1.35814030       0.00000000
Si       1.35930276      -1.35646830       1.36006538       0.00000000
Si      -1.36021500       1.36202319       1.36082166       0.00000000
Si      -0.02984328      -2.70510111       2.70607083       0.00000000
Si       2.71467963       2.71373481      -0.00158131       0.00000000
Si       2.71404432      -2.71490769      -0.00044689       0.00000000
Si       2.71533123       0.00011403      -2.71497430       0.00000000
Si       0.00042354      -2.71469592      -2.71569621       0.00000000
Si      -2.71533123       0.00097740      -2.71507743       0.00000000
