10
Lattice="16.28999089631971 0.0 0.0 0.0 16.28999089631971 0.0 0.0 0.0 34.376317263855086" Properties=species:S:1:pos:R:3:initial_magmoms:R:1 pbc="T T T"
Si      -1.35716877       1.35120663      -1.36243734       0.00000000
Si       1.34586351       1.35125550       1.38471321       0.00000000
Si       1.36021500      -1.36202319      -1.36082166       0.00000000
Si      -1.36479249      -1.36225125       1.38980091       0.00000000
Si       2.52850122      -0.15822477       2.80132766       0.00000000
Si      -2.70891297       2.71289656       0.00044689       0.00000000
Si       0.00267156       2.71105731      -2.71820568       0.00000000
Si      -2.71080261      -2.71974582      -0.00195945       0.00000000
Si      -2.71208952      -0.00390960      -2.71885883       0.00000000
Si       2.72043000       2.71151937       0.00003438       0.00000000
