10
Lattice="16.28999089631971 0.0 0.0 0.0 16.28999089631971 0.0 0.0 0.0 34.376317263855086" Properties=species:S:1:pos:R:3:initial_magmoms:R:1 pbc="T T T"
Si      -1.13715603       0.45761868       2.01283763       0.00000000
Si       0.00623907      -2.30197248      -0.55988739       0.00000000
Si      -1.18138338       1.26667782      -1.63916685       0.00000000
Si       2.28879387       0.69716313       0.43090738       0.00000000
Si      -0.89712288       2.81541929       1.93188136       0.00000000
Si       0.84874158       1.36703613      -3.23189127       0.00000000
Si      -1.49446089       3.33929429      -0.34665098       0.00000000
Si      -0.19912896      -0.99237051       3.66592690       0.00000000
Si       1.04506866      -3.54055005       1.12991580       0.00000000
Si       1.28878335      -2.59428024      -2.56932176       0.00000000
