10
Lattice="16.28999089631971 0.0 0.0 0.0 16.28999089631971 0.0 0.0 0.0 34.376317263855086" Properties=species:S:1:pos:R:3:initial_magmoms:R:1 pbc="T T T"
Si       0.75222333       2.15067096      -0.52365473       0.00000000
Si      -1.33626870       0.24827589       1.90823044       0.00000000
Si       1.39822839      -1.80633294       0.66717594       0.00000000
Si      -2.02595472      -1.18521153      -0.62166167       0.00000000
Si       2.51373338      -0.33829443      -2.00094342       0.00000000
Si      -0.64260792      -2.54887186      -1.93146884       0.00000000
Si      -2.60444520      -1.77938928       1.74504597       0.00000000
Si       0.75794112      -1.13323014      -3.38074081       0.00000000
Si       0.12030165       0.49863690       3.77472800       0.00000000
Si      -3.16568457       0.23164380      -2.13559553       0.00000000
