10
Lattice="16.28999089631971 0.0 0.0 0.0 16.28999089631971 0.0 0.0 0.0 34.376317263855086" Properties=species:S:1:pos:R:3:initial_magmoms:R:1 pbc="T T T"
Si      -1.34449515      -1.34535852      -1.37071517       0.00000000
Si       1.35417141       1.34452773      -1.36222077       0.00000000
Si      -1.35509994       1.35580041       1.35497768       0.00000000
Si       1.35765478      -1.35798327       1.35590584       0.00000000
Si      -2.71358820      -0.00138465       2.71328986       0.00000000
Si       0.00089595       2.71415835       2.71311798       0.00000000
Si      -2.71388142       2.71428867      -0.00728778       0.00000000
Si       0.00114030      -2.71583622       2.71260233       0.00000000
Si       2.71597698      -0.00094482       2.71277422       0.00000000
Si       2.71424210      -2.71471221      -0.00574085       0.00000000
