10
Lattice="16.28999089631971 0.0 0.0 0.0 16.28999089631971 0.0 0.0 0.0 34.376317263855086" Properties=species:S:1:pos:R:3:initial_magmoms:R:1 pbc="T T T"
Si      -1.35637056       1.35659862      -1.35765903       0.00000000
Si      -1.35666378      -1.35741312       1.35738402       0.00000000
Si       1.35856875       1.35738054       1.35710901       0.00000000
Si       1.35924316      -1.35558864      -1.36020288       0.00000000
Si      -2.70521514       0.00498474      -2.71915790       0.00000000
Si      -2.71404432       2.71355562      -0.00048127       0.00000000
Si      -2.71265967      -2.71577106      -0.00075628       0.00000000
Si       2.70373994       0.02362050      -2.72489188       0.00000000
Si      -2.71448415      -0.00004887       2.71445866       0.00000000
Si       0.00137241       2.71495656       2.71476804       0.00000000
