10
Lattice="16.28999089631971 0.0 0.0 0.0 16.28999089631971 0.0 0.0 0.0 34.376317263855086" Properties=species:S:1:pos:R:3:initial_magmoms:R:1 pbc="T T T"
Si       1.35509994      -1.35580041      -1.35497768       0.00000000
Si       1.35599589       1.35835794       1.35814030       0.00000000
Si      -1.35848826      -1.35718506       1.35831218       0.00000000
Si      -1.35878148       1.35848826      -1.36226546       0.00000000
Si       2.70927135      -0.01127268      -2.71719845       0.00000000
Si       2.71275472      -2.71378368       0.00092816       0.00000000
Si       0.01060479      -2.70115893      -2.72569284       0.00000000
Si       2.71265967       2.71577106       0.00075628       0.00000000
Si      -0.00161271      -2.71397916       2.71507743       0.00000000
Si       2.71411189       0.00037467       2.71518056       0.00000000
