10
Lattice="16.28999089631971 0.0 0.0 0.0 16.28999089631971 0.0 0.0 0.0 34.376317263855086" Properties=species:S:1:pos:R:3:initial_magmoms:R:1 pbc="T T T"
Si      -1.35620766      -1.35674523      -1.35734965       0.00000000
Si       1.35808101       1.35796698      -1.35748715       0.00000000
Si      -1.35474156       1.35843939       1.36051227       0.00000000
Si       1.35974259      -1.35948195       1.35683400       0.00000000
Si      -2.71362078       0.00021177      -2.71524931       0.00000000
Si      -2.71404432       2.71490769       0.00044689       0.00000000
Si       0.00141723      -2.71494027      -2.71438990       0.00000000
Si       0.00128691       2.71502172      -2.71452741       0.00000000
Si       2.71526607       2.71511946      -0.00055002       0.00000000
Si       2.71590138       0.00060273      -2.71456179       0.00000000
