10
Lattice="16.28999089631971 0.0 0.0 0.0 16.28999089631971 0.0 0.0 0.0 34.376317263855086" Properties=species:S:1:pos:R:3:initial_magmoms:R:1 pbc="T T T"
Si       1.35610992      -1.35628911      -1.35697151       0.00000000
Si      -1.34827443      -1.35814617       1.36425929       0.00000000
Si      -1.35974259       1.35948195      -1.35683400       0.00000000
Si       1.35625653       1.36037790       1.36391553       0.00000000
Si       2.60786610      -0.04303818       2.76062608       0.00000000
Si      -2.77679340      -0.00861741       2.64250898       0.00000000
Si      -0.06649578       2.62961325       2.78950220       0.00000000
Si      -0.00144981      -2.71225242      -2.71445866       0.00000000
Si      -2.71829601      -2.70997182      -0.00058440       0.00000000
Si       2.71720458      -2.71116099      -0.00220009       0.00000000
