10
Lattice="16.28999089631971 0.0 0.0 0.0 16.28999089631971 0.0 0.0 0.0 34.376317263855086" Properties=species:S:1:pos:R:3:initial_magmoms:R:1 pbc="T T T"
Si       1.53904662       1.40957370      -1.04858139       0.00000000
Si      -1.15556373      -0.99849555      -1.77337207       0.00000000
Si       0.91715958      -1.74019554       1.27876534       0.00000000
Si      -1.62250029       1.27790163       1.19808408       0.00000000
Si      -3.21457086      -0.68512482       1.40458273       0.00000000
Si      -2.91920058      -2.02378815      -0.62258983       0.00000000
Si       1.53564201      -3.19222098      -0.69952407       0.00000000
Si      -1.63677033       0.84269799      -3.18733954       0.00000000
Si       3.10827602      -0.08423559      -2.05714873       0.00000000
Si       0.37921491       2.21157927      -3.00101980       0.00000000
