10
Lattice="16.28999089631971 0.0 0.0 0.0 16.28999089631971 0.0 0.0 0.0 34.376317263855086" Properties=species:S:1:pos:R:3:initial_magmoms:R:1 pbc="T T T"
Si       0.11255250       1.43472546       1.85694094       0.00000000
Si       1.97190776      -1.21101489      -0.48370943       0.00000000
Si      -1.40288244      -1.83648573       0.55813420       0.00000000
Si      -2.08929417       1.71582570      -0.84565788       0.00000000
Si      -0.89096919      -0.09112626       3.33622345       0.00000000
Si      -1.95799677       2.57906538       1.44690000       0.00000000
Si       0.18541278       1.78261470      -3.24581369       0.00000000
Si       1.25376311      -3.44792511      -0.68852364       0.00000000
Si       0.38209009       3.35878623      -1.60135288       0.00000000
Si      -2.85945279      -2.08684674      -1.30836337       0.00000000
