10
Lattice="16.28999089631971 0.0 0.0 0.0 16.28999089631971 0.0 0.0 0.0 34.376317263855086" Properties=species:S:1:pos:R:3:initial_magmoms:R:1 pbc="T T T"
Si      -0.71814465      -2.23691022      -0.20481421       0.00000000
Si      -1.97190776       1.21101489       0.48370943       0.00000000
Si       1.47452193      -0.22415040       1.89114540       0.00000000
Si       1.34760654       1.16142813      -1.97124226       0.00000000
Si       1.44941904      -3.09379680      -0.48972529       0.00000000
Si      -3.37479020      -0.62547084       1.04184363       0.00000000
Si       2.16836190       2.88899892      -0.46648689       0.00000000
Si      -1.90661744      -2.50346349       1.98533656       0.00000000
Si       2.79236664       1.78803927       1.71321348       0.00000000
Si       2.40453432      -2.46671325       1.56872974       0.00000000
