10
Lattice="16.28999089631971 0.0 0.0 0.0 16.28999089631971 0.0 0.0 0.0 34.376317263855086" Properties=species:S:1:pos:R:3:initial_magmoms:R:1 pbc="T T T"
Si      -0.03323160      -1.97310996      -1.21750671       0.00000000
Si       1.39299048       1.60717140      -0.99038225       0.00000000
Si       1.42812801      -0.86754024       1.76281853       0.00000000
Si      -2.34786141       0.73342467      -0.05039571       0.00000000
Si       3.52904835       0.01301571       1.06504766       0.00000000
Si       0.29556576      -0.23390811       3.71927897       0.00000000
Si      -1.16870976      -1.46657241      -3.24928570       0.00000000
Si      -0.85235796      -3.73790340       0.34527592       0.00000000
Si       3.07756774       2.28771873       0.58659781       0.00000000
Si      -3.72399174      -1.18556991       0.33850379       0.00000000
