10
Lattice="16.28999089631971 0.0 0.0 0.0 16.28999089631971 0.0 0.0 0.0 34.376317263855086" Properties=species:S:1:pos:R:3:initial_magmoms:R:1 pbc="T T T"
Si      -1.13256225       0.63363213       1.95646044       0.00000000
Si       2.10092034       0.88055595      -0.69777088       0.00000000
Si       0.70818578      -2.22816249       0.65040029       0.00000000
Si      -1.42812801       0.86754024      -1.76281853       0.00000000
Si      -1.46135961      -1.10556972      -2.98032524       0.00000000
Si      -3.14854749      -0.73524915       1.77014069       0.00000000
Si      -0.03513753       2.47471164      -2.75320079       0.00000000
Si       1.59649886      -1.66218273       2.90033151       0.00000000
Si       1.64943973       3.15525897      -1.17622073       0.00000000
Si       0.02726946      -0.16837344       3.90889884       0.00000000
