10
Lattice="16.28999089631971 0.0 0.0 0.0 16.28999089631971 0.0 0.0 0.0 34.376317263855086" Properties=species:S:1:pos:R:3:initial_magmoms:R:1 pbc="T T T"
Si      -1.35737936       1.35726325       1.35724652       0.00000000
Si      -1.35774944      -1.35729228      -1.35734965       0.00000000
Si       1.35746525      -1.35824422       1.35734965       0.00000000
Si       1.35857297       1.35700261      -1.35776216       0.00000000
Si       2.71334711      -0.00166158       2.71418365       0.00000000
Si      -0.00120872       2.71477411       2.71428678       0.00000000
Si       2.71497611       2.71466008       0.00010313       0.00000000
Si      -2.71492791       2.71483927      -0.00034376       0.00000000
Si      -2.71499307      -2.71529280      -0.00037814       0.00000000
Si      -2.71541661      -0.00241418       2.71490555       0.00000000
