10
Lattice="16.28999089631971 0.0 0.0 0.0 16.28999089631971 0.0 0.0 0.0 34.376317263855086" Properties=species:S:1:pos:R:3:initial_magmoms:R:1 pbc="T T T"
Si       1.35433431      -1.35622395      -1.35789967       0.00000000
Si       1.35583299       1.35782037       1.35631836       0.00000000
Si      -1.35903397      -1.35705474       1.35624960       0.00000000
Si      -1.35975236       1.35596331      -1.36377802       0.00000000
Si      -0.01386279      -2.69081478      -2.72575128       0.00000000
Si       2.71290402      -2.71347417      -0.00055002       0.00000000
Si       2.71347417       0.00057015       2.71349612       0.00000000
Si       2.71293660       2.71510015      -0.00017188       0.00000000
Si      -0.00185706      -2.71459818       2.71370238       0.00000000
Si      -0.00162900       2.71506443       2.71370238       0.00000000
