10
Lattice="16.28999089631971 0.0 0.0 0.0 16.28999089631971 0.0 0.0 0.0 34.376317263855086" Properties=species:S:1:pos:R:3:initial_magmoms:R:1 pbc="T T T"
Si      -1.35507376      -1.35666378      -1.35676525       0.00000000
Si      -1.35238995       1.35995857       1.35827781       0.00000000
Si       1.35952756       1.35787937      -1.35697151       0.00000000
Si       1.35858274      -1.35487188       1.36171544       0.00000000
Si      -0.00419467       2.69281586       2.73243748       0.00000000
Si      -2.71335429       2.71370942       0.00058440       0.00000000
Si      -2.71293075       0.00083079      -2.71469929       0.00000000
Si      -2.71374525      -2.71451673      -0.00013751       0.00000000
Si       0.00212259      -2.71423980      -2.71442428       0.00000000
Si       2.71540942       2.71446201      -0.00013751       0.00000000
