10
Lattice="16.28999089631971 0.0 0.0 0.0 16.28999089631971 0.0 0.0 0.0 34.376317263855086" Properties=species:S:1:pos:R:3:initial_magmoms:R:1 pbc="T T T"
Si      -0.90148860      -1.53624474      -1.49636755       0.00000000
Si      -2.03530518       0.39511395       1.23074160       0.00000000
Si       1.26504882      -0.43737021       2.00654676       0.00000000
Si       1.55815479       1.28466198      -1.46814458       0.00000000
Si      -2.64141698       2.28511233      -0.06620882       0.00000000
Si      -2.32797295      -0.07529238      -2.95038345       0.00000000
Si      -3.21945297      -1.70341272       1.22383195       0.00000000
Si       2.78897832       2.66318694       0.08525331       0.00000000
Si       3.08091141       1.19746161       2.04824526       0.00000000
Si      -2.04819057      -3.30071238      -0.23427473       0.00000000
