10
Lattice="16.28999089631971 0.0 0.0 0.0 16.28999089631971 0.0 0.0 0.0 34.376317263855086" Properties=species:S:1:pos:R:3:initial_magmoms:R:1 pbc="T T T"
Si       1.35443205      -1.35936466      -1.36144043       0.00000000
Si      -1.36012378       1.35707103      -1.36133730       0.00000000
Si       1.35009891       1.36655181       1.37800982       0.00000000
Si      -1.36517205      -1.38101081       1.37113456       0.00000000
Si      -0.23666112       2.57100183       2.82339727       0.00000000
Si       2.62677879      -0.07988616       2.78152689       0.00000000
Si      -2.71336733      -2.71386811      -0.00302512       0.00000000
Si      -2.71304153       2.71588509      -0.00625649       0.00000000
Si       2.71358820       2.71632492      -0.00302512       0.00000000
Si       2.71682991      -2.71363542       0.00082503       0.00000000
