10
Lattice="16.28999089631971 0.0 0.0 0.0 16.28999089631971 0.0 0.0 0.0 34.376317263855086" Properties=species:S:1:pos:R:3:initial_magmoms:R:1 pbc="T T T"
Si       0.33892974       2.23901882       0.57714431       0.00000000
Si       2.11732533      -1.04321160       0.50571029       0.00000000
Si      -2.21405698      -0.79268769       0.80643448       0.00000000
Si       1.24613613       0.84051254      -2.15464002       0.00000000
Si       2.10891969       2.68969796      -0.94552113       0.00000000
Si       1.31883840      -2.74144410       1.96752962       0.00000000
Si      -1.82863395       3.09590540       0.86205539       0.00000000
Si      -2.19871831      -3.01198842       0.08095627       0.00000000
Si       3.00874671      -2.29934979      -1.46271312       0.00000000
Si      -0.10336005      -4.02506352       0.57814123       0.00000000
