10
Lattice="16.28999089631971 0.0 0.0 0.0 16.28999089631971 0.0 0.0 0.0 34.35334932831803" Properties=species:S:1:pos:R:3:initial_magmoms:R:1 pbc="T T T"
Si       1.31839857      -1.37730357       1.41115050       0.00000000
Si      -0.66489264      -1.95169091      -1.17276629       0.00000000
Si      -1.40061420       1.31530836       1.42526629       0.00000000
Si       1.18912113       1.50736746      -1.56379080       0.00000000
Si      -0.76911606      -1.07681787      -3.36431955       0.00000000
Si       2.54399301       2.70494310      -0.03654511       0.00000000
Si      -2.62614348      -2.65721081      -0.03040960       0.00000000
Si      -2.56259619       2.75900961       0.04304821       0.00000000
Si       2.66002668      -0.02277505       2.77962380       0.00000000
Si      -0.05424570       2.69528313       2.78044828       0.00000000
