10
Lattice="16.28999089631971 0.0 0.0 0.0 16.28999089631971 0.0 0.0 0.0 34.35334932831803" Properties=species:S:1:pos:R:3:initial_magmoms:R:1 pbc="T T T"
Si       1.35848826       1.35631029      -1.35785124       0.00000000
Si      -1.35711990      -1.35781622      -1.35774818       0.00000000
Si       1.35795069      -1.35747224       1.35912232       0.00000000
Si      -1.35879777       1.35771123       1.35919103       0.00000000
Si      -2.71398568       2.71401663      -0.00082448       0.00000000
Si       2.71559187       2.71339761      -0.00082448       0.00000000
Si       0.00084708       2.71450533      -2.71460318       0.00000000
Si      -2.71468126      -0.00042354      -2.71522154       0.00000000
Si      -2.71348557      -2.71684850      -0.00044659       0.00000000
Si       0.00096111      -2.71601771      -2.71494671       0.00000000
