10
Lattice="16.28999089631971 0.0 0.0 0.0 16.28999089631971 0.0 0.0 0.0 34.35334932831803" Properties=species:S:1:pos:R:3:initial_magmoms:R:1 pbc="T T T"
Si      -1.35795069       1.35747224      -1.35912232       0.00000000
Si       1.35790182      -1.35975093      -1.35901926       0.00000000
Si       1.35379674       1.36617110       1.37173001       0.00000000
Si      -1.36778985      -1.37367888       1.38244826       0.00000000
Si       2.61094491      -0.10325436       2.68200183       0.00000000
Si      -2.71467963      -2.71432959      -0.00024047       0.00000000
Si       0.00053757       2.71378253      -2.71697356       0.00000000
Si       2.71546155       2.71560701      -0.00175202       0.00000000
Si       2.71476108      -0.00047059      -2.71649262       0.00000000
Si      -2.71674846       2.71518347       0.00006871       0.00000000
