10
Lattice="16.28999089631971 0.0 0.0 0.0 16.28999089631971 0.0 0.0 0.0 34.35334932831803" Properties=species:S:1:pos:R:3:initial_magmoms:R:1 pbc="T T T"
Si       1.25714817      -1.46942546       1.31027183       0.00000000
Si       1.36166481       1.34943591      -1.37348203       0.00000000
Si      -1.35379674      -1.36617110      -1.37173001       0.00000000
Si      -1.37515293       1.33065354       1.47310680       0.00000000
Si      -0.77649543      -2.06676347       2.89787840       0.00000000
Si      -2.49683346      -0.23249414       2.84270689       0.00000000
Si       2.71031391       2.70823368       0.00659585       0.00000000
Si      -2.72132595       2.70898302       0.02329158       0.00000000
Si       0.00384444       2.70469875      -2.73167681       0.00000000
Si      -2.71174743      -0.00869886      -2.73085232       0.00000000
