10
Lattice="16.28999089631971 0.0 0.0 0.0 16.28999089631971 0.0 0.0 0.0 34.35334932831803" Properties=species:S:1:pos:R:3:initial_magmoms:R:1 pbc="T T T"
Si      -1.83969486      -1.42217890       0.16668254       0.00000000
Si      -0.72312939       1.77082074       1.43686399       0.00000000
Si       1.66783536      -1.35656115       1.10054451       0.00000000
Si       0.57176271       0.28470033      -2.33695660       0.00000000
Si      -1.06285734      -3.22024697      -1.10937333       0.00000000
Si       1.20197394       3.01604463       1.69977032       0.00000000
Si      -2.02178448      -1.85232680       2.50425751       0.00000000
Si      -2.35678833       2.91281490       0.14091752       0.00000000
Si       2.03041818       3.14383968      -0.50870468       0.00000000
Si       1.78807185      -0.56366169       3.29149930       0.00000000
