10
Lattice="16.28999089631971 0.0 0.0 0.0 16.28999089631971 0.0 0.0 0.0 34.35334932831803" Properties=species:S:1:pos:R:3:initial_magmoms:R:1 pbc="T T T"
Si       2.16552744       0.51888700      -0.73629575       0.00000000
Si      -0.74161854       2.22874567      -0.27389941       0.00000000
Si      -1.64432889      -0.76977810      -1.52353754       0.00000000
Si       0.02844234      -0.87421329       2.22630440       0.00000000
Si       0.96796809       3.23256805       1.04324310       0.00000000
Si       2.04529095      -0.27401246      -2.92725053       0.00000000
Si      -1.83979260       0.31872525       3.07919548       0.00000000
Si      -3.60447201       0.41925247      -0.88301898       0.00000000
Si       3.69844902      -0.38221716       0.78494012       0.00000000
Si      -0.34567380       2.85336943      -2.59093105       0.00000000
