10
Lattice="16.28999089631971 0.0 0.0 0.0 16.28999089631971 0.0 0.0 0.0 34.35334932831803" Properties=species:S:1:pos:R:3:initial_magmoms:R:1 pbc="T T T"
Si      -1.38447081      -1.24822451      -1.38265438       0.00000000
Si       1.84104693      -1.53833475       0.06609588       0.00000000
Si       0.94247424       1.53526734      -1.59062967       0.00000000
Si      -1.17810909       1.12679559       1.77589739       0.00000000
Si       2.38115817       2.32947000       0.34432381       0.00000000
Si       0.92224206      -3.16632707      -1.38605536       0.00000000
Si      -1.44756198       3.28235355       0.71729833       0.00000000
Si      -3.63292412      -0.69533539      -0.30615722       0.00000000
Si       1.94527035      -2.41320779       2.25764914       0.00000000
Si      -0.50665158       3.57863607      -1.51326588       0.00000000
