10
Lattice="16.28999089631971 0.0 0.0 0.0 16.28999089631971 0.0 0.0 0.0 34.35334932831803" Properties=species:S:1:pos:R:3:initial_magmoms:R:1 pbc="T T T"
Si       0.10422342      -0.87487304       2.19155326       0.00000000
Si      -0.91880487      -1.62799232      -1.45215124       0.00000000
Si      -1.84104693       1.53833475      -0.06609588       0.00000000
Si       2.41795728       0.36114441      -0.67470016       0.00000000
Si       0.62147979      -0.69245762      -3.21915110       0.00000000
Si      -3.22551774       0.29011024      -1.44875026       0.00000000
Si      -0.89857269       3.07360209      -1.65672555       0.00000000
Si       0.76911606       1.07681787       3.36431955       0.00000000
Si       1.95823719       2.58418533       1.80052875       0.00000000
Si       1.63157382      -2.80593851       2.18855318       0.00000000
