10
Lattice="16.28999089631971 0.0 0.0 0.0 16.28999089631971 0.0 0.0 0.0 34.35334932831803" Properties=species:S:1:pos:R:3:initial_magmoms:R:1 pbc="T T T"
Si       1.35487188       1.19757564       1.52724568       0.00000000
Si       1.88167419      -0.99035055      -1.11517905       0.00000000
Si      -1.41812595       1.28361942      -1.52230082       0.00000000
Si      -1.18912113      -1.50736746       1.56379080       0.00000000
Si       0.45972009      -2.22304091      -2.47522891       0.00000000
Si      -2.40974712       2.63777454       0.25819992       0.00000000
Si      -1.95823719      -2.58418533      -1.80052875       0.00000000
Si       0.12290805       2.74690125      -2.64187710       0.00000000
Si       2.26002573       3.06892197       0.38384843       0.00000000
Si       0.10352295       2.54415591       2.98683443       0.00000000
