10
Lattice="16.28999089631971 0.0 0.0 0.0 16.28999089631971 0.0 0.0 0.0 34.35334932831803" Properties=species:S:1:pos:R:3:initial_magmoms:R:1 pbc="T T T"
Si       1.16198199      -1.44370125       1.38221809       0.00000000
Si       1.34197020       1.38613239      -1.34863908       0.00000000
Si      -1.22567589      -1.17069714      -1.69756625       0.00000000
Si      -1.55359359       1.28570454       1.36828093       0.00000000
Si      -1.49512878       0.98486082      -2.75616530       0.00000000
Si      -0.63790011       2.91001302      -1.46509700       0.00000000
Si       2.50835049      -0.06372648       2.73740008       0.00000000
Si       2.56259619      -2.75900961      -0.04304821       0.00000000
Si      -2.78456862      -2.56099814      -0.11800382       0.00000000
Si      -0.20484675       2.64455118       2.73774361       0.00000000
