10
Lattice="16.28999089631971 0.0 0.0 0.0 16.28999089631971 0.0 0.0 0.0 34.35334932831803" Properties=species:S:1:pos:R:3:initial_magmoms:R:1 pbc="T T T"
Si       1.35571896       1.35602847      -1.35774818       0.00000000
Si       1.35795069      -1.35698958       1.35692370       0.00000000
Si      -1.35785295      -1.35786924      -1.35651146       0.00000000
Si      -1.35739683       1.35819504       1.35726724       0.00000000
Si      -2.71178001      -0.00451233      -2.71443141       0.00000000
Si       2.71386513       0.00060273       2.71357258       0.00000000
Si       0.00141723      -2.71278999      -2.71477495       0.00000000
Si      -2.71480995       0.00268785       2.71350387       0.00000000
Si      -2.71474479      -2.71401174       0.00010306       0.00000000
Si       2.71487511      -2.71412577      -0.00044659       0.00000000
