10
Lattice="16.28999089631971 0.0 0.0 0.0 16.28999089631971 0.0 0.0 0.0 34.35334932831803" Properties=species:S:1:pos:R:3:initial_magmoms:R:1 pbc="T T T"
Si       0.71617356       1.14352542       1.96734871       0.00000000
Si      -1.90864668       1.53499041      -0.52313310       0.00000000
Si      -0.29400192      -1.61619606      -2.69292621       0.00000000
Si       0.22121820       1.08475110      -2.97878058       0.00000000
Si      -1.01708896      -2.89603946       1.19020681       0.00000000
Si      -1.34527707       0.67624677       3.00918332       0.00000000
Si       1.93613166      -2.26704020      -2.09696397       0.00000000
Si      -2.99792105       1.47354453       1.59052661       0.00000000
Si      -2.90270600       0.60641154      -2.48618763       0.00000000
Si      -1.91526775      -3.14630273      -1.35108363       0.00000000
