10
Lattice="16.28999089631971 0.0 0.0 0.0 16.28999089631971 0.0 0.0 0.0 34.35334932831803" Properties=species:S:1:pos:R:3:initial_magmoms:R:1 pbc="T T T"
Si       1.83969486       1.42217890      -0.16668254       0.00000000
Si       0.77683752      -1.79806806      -1.27605587       0.00000000
Si      -0.18208962      -0.43014789       2.33757496       0.00000000
Si      -2.25035599       0.29542892      -0.80290693       0.00000000
Si       1.09006164      -3.25232523       0.45205598       0.00000000
Si      -0.53225946      -2.71558602       2.09624255       0.00000000
Si       1.11656547       3.19299964       1.27018145       0.00000000
Si       3.50753022       0.06561775       0.93386197       0.00000000
Si      -3.19048609       1.57100434       1.00665676       0.00000000
Si      -2.14223274       0.75888268       2.97809352       0.00000000
