10
Lattice="16.28999089631971 0.0 0.0 0.0 16.28999089631971 0.0 0.0 0.0 34.35334932831803" Properties=species:S:1:pos:R:3:initial_magmoms:R:1 pbc="T T T"
Si      -0.23366376      -2.21188878      -0.76395021       0.00000000
Si       1.99109412       0.38146293      -1.21329227       0.00000000
Si      -2.17175022       0.84637953      -0.39898002       0.00000000
Si       0.91733877       0.55864926       2.14626105       0.00000000
Si      -2.95529922       0.38607300       1.77002296       0.00000000
Si       0.59478048      -2.08409373      -2.97242521       0.00000000
Si       0.78654636      -3.46946049       0.94935534       0.00000000
Si       1.36710567       0.09638793      -3.45313190       0.00000000
Si       3.22887348      -1.71766647      -0.97367752       0.00000000
Si      -2.05516269       3.17503503      -0.28180068       0.00000000
