10
Lattice="16.28999089631971 0.0 0.0 0.0 16.28999089631971 0.0 0.0 0.0 34.35334932831803" Properties=species:S:1:pos:R:3:initial_magmoms:R:1 pbc="T T T"
Si      -0.90673398      -0.64622430       2.09857858       0.00000000
Si       2.09235276      -1.11672837       0.15074258       0.00000000
Si      -0.06700077       2.37348558       0.23044240       0.00000000
Si      -0.91733877      -0.55864926      -2.14626105       0.00000000
Si      -2.77806402      -1.64869461       1.10659071       0.00000000
Si       1.07375535      -0.17718633      -3.35955332       0.00000000
Si      -1.76961528       2.64562632       1.85278022       0.00000000
Si       2.05470657       3.06810747       0.99215964       0.00000000
Si       0.46279890      -2.30309649       3.06961089       0.00000000
Si       2.05004763      -3.15017649      -0.99916772       0.00000000
