10
Lattice="16.28999089631971 0.0 0.0 0.0 16.28999089631971 0.0 0.0 0.0 34.35334932831803" Properties=species:S:1:pos:R:3:initial_magmoms:R:1 pbc="T T T"
Si       2.16354006       0.47190501      -0.76838179       0.00000000
Si      -1.36953288       1.65687219      -0.97103231       0.00000000
Si       0.28184958       0.35241786       2.32476115       0.00000000
Si      -1.23588972      -2.00213874      -0.50485710       0.00000000
Si       1.62955386       1.18636812      -2.91886831       0.00000000
Si      -2.69786835      -1.90506663       1.50938395       0.00000000
Si      -2.22526287      -1.33346682      -2.60855433       0.00000000
Si      -1.25918442      -1.11086397       3.44433744       0.00000000
Si      -3.24086292       0.65440188      -1.96302018       0.00000000
Si      -0.46279890       2.30309649      -3.06961089       0.00000000
