10
Lattice="16.28999089631971 0.0 0.0 0.0 16.28999089631971 0.0 0.0 0.0 34.35334932831803" Properties=species:S:1:pos:R:3:initial_magmoms:R:1 pbc="T T T"
Si      -1.17304290       1.31141016      -1.57523936       0.00000000
Si       0.96910839       1.61274258       1.53315648       0.00000000
Si      -1.92256209      -0.67947219       1.40632385       0.00000000
Si       1.53334512      -1.39336515      -1.53617958       0.00000000
Si       1.42369713      -0.16462674       3.29713325       0.00000000
Si      -2.39200731       2.70472644      -0.10594579       0.00000000
Si      -2.59525764      -2.66077602       0.04184240       0.00000000
Si       2.71671588       2.54949903      -0.01765763       0.00000000
Si      -2.53672767      -0.04443912      -2.93999563       0.00000000
Si      -0.83927709       3.38799420       1.70877090       0.00000000
