10
Lattice="16.28999089631971 0.0 0.0 0.0 16.28999089631971 0.0 0.0 0.0 34.35334932831803" Properties=species:S:1:pos:R:3:initial_magmoms:R:1 pbc="T T T"
Si      -1.27984014       1.99485711       0.46579732       0.00000000
Si       2.26137780       0.60251823       0.73165804       0.00000000
Si       0.19497501      -0.32879736      -2.47656869       0.00000000
Si      -1.00942614      -1.42798140       1.90169942       0.00000000
Si       0.27126108       3.41308080      -0.61011583       0.00000000
Si       0.48615876      -0.71788401       3.51836894       0.00000000
Si       1.85150511       2.92467402       1.13864240       0.00000000
Si       2.64157011      -1.19465973       2.33977358       0.00000000
Si      -0.22214673       2.96339535       2.34162866       0.00000000
Si       2.00336049      -2.10404898      -2.65218311       0.00000000
