10
Lattice="16.28999089631971 0.0 0.0 0.0 16.28999089631971 0.0 0.0 0.0 34.35334932831803" Properties=species:S:1:pos:R:3:initial_magmoms:R:1 pbc="T T T"
Si      -2.30997087      -0.36023706       0.31934891       0.00000000
Si       1.60344099      -1.43163036       0.99040761       0.00000000
Si       0.60155712       2.15573715       0.86859057       0.00000000
Si       0.41793624      -0.53102142      -2.35938935       0.00000000
Si       3.02762682       1.25866314      -0.19399347       0.00000000
Si      -3.04943913       1.92241548       0.43051641       0.00000000
Si       2.78648595      -0.66564198      -2.29174757       0.00000000
Si      -1.55385423       2.63251287       2.04718594       0.00000000
Si       3.38752179      -2.00810088      -0.46363306       0.00000000
Si       0.83111580      -3.61211202       1.47111430       0.00000000
