10
Lattice="16.28999089631971 0.0 0.0 0.0 16.28999089631971 0.0 0.0 0.0 34.35334932831803" Properties=species:S:1:pos:R:3:initial_magmoms:R:1 pbc="T T T"
Si      -1.31779584       1.32535440      -1.53738195       0.00000000
Si       1.40753745      -1.36647036      -1.52456814       0.00000000
Si       0.62729532       1.99844091       1.34977820       0.00000000
Si      -0.96803325      -2.01712554       1.72687513       0.00000000
Si      -2.52076347      -2.70039330      -0.08784156       0.00000000
Si       2.66093892       2.59577892      -0.23782837       0.00000000
Si      -2.70850572       2.60509680      -0.05393479       0.00000000
Si       2.58795972      -2.85562071       0.00044659       0.00000000
Si      -2.66468562      -0.01529631      -2.92007068       0.00000000
Si       0.04999401       2.69903328      -2.91983020       0.00000000
