10
Lattice="16.28999089631971 0.0 0.0 0.0 16.28999089631971 0.0 0.0 0.0 34.35334932831803" Properties=species:S:1:pos:R:3:initial_magmoms:R:1 pbc="T T T"
Si      -1.38955329       1.28130624      -1.44613940       0.00000000
Si      -0.92831823      -1.99488969       0.92771272       0.00000000
Si       1.34084619      -1.42414673      -1.44978086       0.00000000
Si       0.87928533       1.95379002       1.58162909       0.00000000
Si      -2.66734089       2.66089005       0.07138630       0.00000000
Si       2.65887009       2.67401979       0.03988426       0.00000000
Si      -0.02401146       2.63647134      -2.82384689       0.00000000
Si       2.57339646      -2.93543261      -0.07355056       0.00000000
Si       2.69327457      -0.08006535      -2.82597680       0.00000000
Si      -2.73820239      -0.07749153      -2.82621728       0.00000000
