10
Lattice="16.28999089631971 0.0 0.0 0.0 16.28999089631971 0.0 0.0 0.0 34.35334932831803" Properties=species:S:1:pos:R:3:initial_magmoms:R:1 pbc="T T T"
Si       2.15976078       0.54026925      -0.67239848       0.00000000
Si      -1.53292158       0.90110416      -1.52123587       0.00000000
Si      -0.12080664      -2.32739044      -0.56126533       0.00000000
Si      -0.28505871       1.05253437       2.13908120       0.00000000
Si      -1.68303393      -0.72287431       2.81381571       0.00000000
Si       2.07625824      -0.11165655      -2.94233166       0.00000000
Si       1.27259109      -2.32206361      -2.47237758       0.00000000
Si      -1.09880937       3.22323877      -1.39965929       0.00000000
Si      -3.69844902       0.38221716      -0.78494012       0.00000000
Si       1.00782972      -3.54042529       1.06165650       0.00000000
