10
Lattice="16.28999089631971 0.0 0.0 0.0 16.28999089631971 0.0 0.0 0.0 34.35334932831803" Properties=species:S:1:pos:R:3:initial_magmoms:R:1 pbc="T T T"
Si      -1.32451628      -1.35808101      -1.34910144       0.00000000
Si      -1.35317350       1.35975888       1.35438155       0.00000000
Si       1.36047075      -1.35378045       1.35520604       0.00000000
Si       1.37174343       1.35303111      -1.37142082       0.00000000
Si      -2.60361019      -0.00576666      -2.71071094       0.00000000
Si       0.14076841      -2.49367157      -2.85770557       0.00000000
Si      -2.71242739       0.00215028       2.71188926       0.00000000
Si       0.00199715      -2.71255053       2.71195797       0.00000000
Si      -2.71232965      -2.71469266      -0.00604619       0.00000000
Si      -2.71294867       2.71601541      -0.00645843       0.00000000
