10
Lattice="16.28999089631971 0.0 0.0 0.0 16.28999089631971 0.0 0.0 0.0 34.35334932831803" Properties=species:S:1:pos:R:3:initial_magmoms:R:1 pbc="T T T"
Si       1.35694071      -1.35436689       1.35960327       0.00000000
Si      -1.36774098      -1.35490446      -1.35472509       0.00000000
Si      -1.36032903       1.35767376       1.35970633       0.00000000
Si       1.36088289       1.37474568      -1.36077472       0.00000000
Si      -2.58949098       0.12173517      -2.73676797       0.00000000
Si       2.71397916      -2.71173114      -0.00120237       0.00000000
Si      -2.71463076      -2.71114470       0.00267956       0.00000000
Si       2.68151319       0.00596214      -2.74526013       0.00000000
Si      -0.00117288      -2.71248048       2.71700792       0.00000000
Si       2.71375110       2.71629234       0.00432852       0.00000000
