10
Lattice="16.28999089631971 0.0 0.0 0.0 16.28999089631971 0.0 0.0 0.0 34.35334932831803" Properties=species:S:1:pos:R:3:initial_magmoms:R:1 pbc="T T T"
Si       1.77958476       0.72022977      -1.54174483       0.00000000
Si      -1.84943628       1.82495241      -0.06843191       0.00000000
Si       1.31854518       0.25438464       2.29391183       0.00000000
Si      -0.87928533      -1.95379002      -1.58162909       0.00000000
Si       0.45965493       2.05773651      -3.02161924       0.00000000
Si      -2.26883862      -0.67248378      -3.02776849       0.00000000
Si      -0.84413151       3.51117918      -1.50581120       0.00000000
Si      -3.54662622       0.70710003      -1.51024279       0.00000000
Si      -2.84493447      -0.25094745       2.75795713       0.00000000
Si       3.60372267       1.85714145      -0.27458647       0.00000000
