10
Lattice="16.28999089631971 0.0 0.0 0.0 16.28999089631971 0.0 0.0 0.0 34.35334932831803" Properties=species:S:1:pos:R:3:initial_magmoms:R:1 pbc="T T T"
Si       1.27778760      -1.37958381      -1.51752570       0.00000000
Si      -1.52749701      -1.31509170       1.33425048       0.00000000
Si      -1.43172810       1.33848414      -1.49409670       0.00000000
Si       1.69718994       1.11785238       1.44181088       0.00000000
Si       2.66734089      -2.66089005      -0.07138630       0.00000000
Si       2.70249471       2.80407915       0.00443158       0.00000000
Si       3.54662622      -0.70710003       1.51024279       0.00000000
Si       2.64332943      -0.02441871      -2.89523319       0.00000000
Si      -2.80767924      -2.75716395      -0.05101475       0.00000000
Si      -0.06977007       2.69030979      -2.89375600       0.00000000
