10
Lattice="16.28999089631971 0.0 0.0 0.0 16.28999089631971 0.0 0.0 0.0 34.35334932831803" Properties=species:S:1:pos:R:3:initial_magmoms:R:1 pbc="T T T"
Si      -0.60103584       1.34245890      -1.82811451       0.00000000
Si      -1.78408080       0.57647052       1.45404068       0.00000000
Si      -0.72651771      -2.04819057      -0.96677250       0.00000000
Si       1.74407256       0.55555416       1.56077659       0.00000000
Si      -0.35989497       3.26676402       0.26963959       0.00000000
Si       0.48404106      -3.44039913       0.45456377       0.00000000
Si      -2.55640599      -1.60401114       1.93474736       0.00000000
Si       1.19118996       2.80124469       2.04618969       0.00000000
Si       0.26898048       0.02770929      -3.79316154       0.00000000
Si      -2.96958555       1.47707946      -1.89575629       0.00000000
