10
Lattice="16.28999089631971 0.0 0.0 0.0 16.28999089631971 0.0 0.0 0.0 34.35334932831803" Properties=species:S:1:pos:R:3:initial_magmoms:R:1 pbc="T T T"
Si      -2.19076065      -0.30968919       0.61928817       0.00000000
Si       1.05192675       1.00564686       1.82701520       0.00000000
Si      -0.52437510       1.48344885      -1.75343028       0.00000000
Si       1.35340578      -1.76301783      -0.82970256       0.00000000
Si       1.52041086       1.51858638      -2.76767914       0.00000000
Si       3.36383613      -0.57712212      -1.10665941       0.00000000
Si      -2.93045697      -1.97666118      -0.85285673       0.00000000
Si       3.12421023       1.72227654      -0.85344073       0.00000000
Si       0.52305561      -2.21737851      -3.00083545       0.00000000
Si      -2.45224773      -1.18354995       2.74005903       0.00000000
