10
Lattice="16.28999089631971 0.0 0.0 0.0 16.28999089631971 0.0 0.0 0.0 34.35334932831803" Properties=species:S:1:pos:R:3:initial_magmoms:R:1 pbc="T T T"
Si       1.27407348       0.04553055       1.94694281       0.00000000
Si      -0.70737696       2.16471294      -0.49733372       0.00000000
Si      -1.92775860      -1.17706653       0.60156184       0.00000000
Si       1.53411075      -1.02131784      -1.46139230       0.00000000
Si       2.18461932      -2.10346254       1.88211800       0.00000000
Si      -1.39377240      -1.89152964       2.75204835       0.00000000
Si      -1.83049101       1.82008170      -2.57110916       0.00000000
Si      -0.29664090      -0.01312974       3.69113203       0.00000000
Si       3.08180736       0.62413506      -2.01633661       0.00000000
Si      -1.97006373      -3.21051465      -0.54834847       0.00000000
