10
Lattice="16.28999089631971 0.0 0.0 0.0 16.28999089631971 0.0 0.0 0.0 34.35334932831803" Properties=species:S:1:pos:R:3:initial_magmoms:R:1 pbc="T T T"
Si       1.56048426       1.57696974      -0.84626088       0.00000000
Si      -0.31421781       0.42889941       2.34831146       0.00000000
Si       1.07090460      -2.15919063      -0.32302472       0.00000000
Si      -2.45133549       0.10687869      -0.67741407       0.00000000
Si       0.52748649       2.10476574      -2.83147334       0.00000000
Si       3.23965746      -1.68407649       0.48190905       0.00000000
Si      -1.93479588       2.24321445       2.30999577       0.00000000
Si      -0.69256935      -3.63037311       0.84928398       0.00000000
Si      -0.56964501       0.22636584      -3.77055702       0.00000000
Si      -3.06154260       2.29498407       0.16620160       0.00000000
