10
Lattice="16.28999089631971 0.0 0.0 0.0 16.28999089631971 0.0 0.0 0.0 34.35334932831803" Properties=species:S:1:pos:R:3:initial_magmoms:R:1 pbc="T T T"
Si       1.35619137      -1.35676152      -1.35537780       0.00000000
Si      -1.35830907      -1.35558864       1.35733594       0.00000000
Si       1.35632169       1.35944937       1.35723288       0.00000000
Si      -1.35951453       1.36055709      -1.36056516       0.00000000
Si       0.00332316      -2.69830818      -2.72048104       0.00000000
Si       2.71282257      -2.71112841       0.00082448       0.00000000
Si       0.00928530       2.71101438      -2.71706632       0.00000000
Si      -0.00099369      -2.71349046       2.71491236       0.00000000
Si       2.71407690       0.00184077       2.71474059       0.00000000
Si      -2.71564074       0.00182448       2.71446577       0.00000000
