10
Lattice="16.28999089631971 0.0 0.0 0.0 16.28999089631971 0.0 0.0 0.0 34.35334932831803" Properties=species:S:1:pos:R:3:initial_magmoms:R:1 pbc="T T T"
Si      -1.35610992       1.35594702      -1.36231718       0.00000000
Si       1.36039419      -1.36037790      -1.36125223       0.00000000
Si       1.37813400       1.34314308       1.36626782       0.00000000
Si      -1.37383344      -1.36464588       1.38643325       0.00000000
Si      -0.08565282       2.58528816       2.72106161       0.00000000
Si      -2.71104696       2.71142163      -0.00676761       0.00000000
Si      -2.71148679      -2.71738377      -0.00010306       0.00000000
Si       0.00190593       2.71233387      -2.71903477       0.00000000
Si      -2.71243161      -0.00245979      -2.71930959       0.00000000
Si       2.72047887       2.71256193      -0.00532477       0.00000000
