10
Lattice="16.28999089631971 0.0 0.0 0.0 16.28999089631971 0.0 0.0 0.0 34.35334932831803" Properties=species:S:1:pos:R:3:initial_magmoms:R:1 pbc="T T T"
Si      -1.46378682       1.24214508       1.35479379       0.00000000
Si       1.34234487       1.36941885      -1.37159259       0.00000000
Si      -1.37813400      -1.34314308      -1.36626782       0.00000000
Si       1.26431577      -1.44578637       1.51439954       0.00000000
Si      -2.44047006      -0.52228998       2.75702959       0.00000000
Si       2.68731243       2.70446580      -0.00130543       0.00000000
Si       2.68822467      -2.70777267       0.00886317       0.00000000
Si       2.69493615       0.01283652      -2.72841324       0.00000000
Si      -0.01773981      -2.70352098      -2.72752005       0.00000000
Si      -0.42707493      -2.17689786       3.14065366       0.00000000
