10
Lattice="16.28999089631971 0.0 0.0 0.0 16.28999089631971 0.0 0.0 0.0 34.35334932831803" Properties=species:S:1:pos:R:3:initial_magmoms:R:1 pbc="T T T"
Si       1.35511623      -1.35971001       1.35761077       0.00000000
Si      -1.34921925      -1.36518345      -1.35897460       0.00000000
Si       1.35361755       1.34786718      -1.37305605       0.00000000
Si      -1.35933534       1.35681061       1.35884749       0.00000000
Si       0.10456551      -2.64406248      -2.74219237       0.00000000
Si       2.71327869       2.71130175      -0.00267956       0.00000000
Si       2.71078632      -2.71707426      -0.00065271       0.00000000
Si      -2.71642266       2.71153633       0.00024047       0.00000000
Si       2.71285515      -0.00182448       2.71529025       0.00000000
Si      -0.00180819       2.71260821       2.71556508       0.00000000
