10
Lattice="16.28999089631971 0.0 0.0 0.0 16.28999089631971 0.0 0.0 0.0 34.35334932831803" Properties=species:S:1:pos:R:3:initial_magmoms:R:1 pbc="T T T"
Si       1.37078721      -1.26868149       1.41376479       0.00000000
Si      -1.79398512      -1.05194304      -1.18241031       0.00000000
Si       1.30145697       1.42441389      -1.44507930       0.00000000
Si      -1.33804431       1.45350977       1.40450655       0.00000000
Si      -3.32133552       0.87912243      -1.17941023       0.00000000
Si       2.82457197      -2.54756052       0.03054702       0.00000000
Si       0.00198738      -2.61913878       2.77026594       0.00000000
Si      -2.71021617       0.09397701       2.76954452       0.00000000
Si      -2.65644288       2.83081334      -0.00664394       0.00000000
Si       2.72000646       0.09650196       2.77273939       0.00000000
