10
Lattice="16.28999089631971 0.0 0.0 0.0 16.28999089631971 0.0 0.0 0.0 34.35334932831803" Properties=species:S:1:pos:R:3:initial_magmoms:R:1 pbc="T T T"
Si      -1.34921925      -1.35997065      -1.39495288       0.00000000
Si       1.36824597       1.35441576      -1.38880363       0.00000000
Si       1.34617302      -1.37832948       1.44981521       0.00000000
Si      -1.40647860       1.44990774       1.58475524       0.00000000
Si      -2.69303348       2.70819621      -0.03129592       0.00000000
Si      -2.68892188      -2.71541431      -0.01326040       0.00000000
Si       2.72132595      -2.70898302      -0.02329158       0.00000000
Si       2.72212416       2.71731861       0.00673326       0.00000000
Si      -2.70440716      -0.00366525      -2.75496839       0.00000000
Si       2.62635525       0.06374277       2.83508044       0.00000000
