10
Lattice="16.28999089631971 0.0 0.0 0.0 16.28999089631971 0.0 0.0 0.0 34.35334932831803" Properties=species:S:1:pos:R:3:initial_magmoms:R:1 pbc="T T T"
Si       1.12863636      -1.21303485       1.62292184       0.00000000
Si       1.39339773       0.00532683      -1.91111224       0.00000000
Si       0.12080664       2.32739044       0.56126533       0.00000000
Si      -2.04235875      -0.94910427      -0.87274733       0.00000000
Si      -0.68154102      -0.65270772       3.08919231       0.00000000
Si      -1.87460433       0.04701294      -3.03213137       0.00000000
Si      -1.41211494       3.22849459      -0.95997053       0.00000000
Si       2.28056742       2.86765969      -0.11113315       0.00000000
Si       0.16853634      -1.03247649      -3.61201623       0.00000000
Si      -1.71123192      -3.26024802      -1.35829784       0.00000000
