10
Lattice="16.28999089631971 0.0 0.0 0.0 16.28999089631971 0.0 0.0 0.0 34.35334932831803" Properties=species:S:1:pos:R:3:initial_magmoms:R:1 pbc="T T T"
Si       1.35700678      -1.35775521      -1.36173318       0.00000000
Si      -1.35863463       1.35856971      -1.36173318       0.00000000
Si       1.36838046       1.35410625       1.36193930       0.00000000
Si      -1.37169921      -1.36725228       1.37987175       0.00000000
Si       2.71346531       2.71215468      -0.00384758       0.00000000
Si      -2.71521696       2.71090035      -0.00202685       0.00000000
Si       2.71219469      -2.71406061      -0.00171767       0.00000000
Si      -2.71410924      -2.71621089      -0.00329792       0.00000000
Si       2.71403546       0.00042354      -2.71793546       0.00000000
Si      -0.00052484       2.71464705      -2.71879429       0.00000000
