10
Lattice="16.28999089631971 0.0 0.0 0.0 16.28999089631971 0.0 0.0 0.0 34.35334932831803" Properties=species:S:1:pos:R:3:initial_magmoms:R:1 pbc="T T T"
Si      -1.35610992      -1.34780202       1.37436491       0.00000000
Si       1.35863487       1.36519974       1.37409008       0.00000000
Si      -1.38857589       1.36989126      -1.36969285       0.00000000
Si       1.46797335      -1.35658233      -1.33016243       0.00000000
Si       0.03187953       2.63305044      -2.73115261       0.00000000
Si      -2.71327869      -2.70511740      -0.01563422       0.00000000
Si       0.00151497      -2.70518256       2.73486136       0.00000000
Si      -2.70920619       2.73867480       0.01479256       0.00000000
Si      -2.71314837       0.00956223       2.73517054       0.00000000
Si       2.71841004       0.00894321       2.73493007       0.00000000
