10
Lattice="16.28999089631971 0.0 0.0 0.0 16.28999089631971 0.0 0.0 0.0 34.35334932831803" Properties=species:S:1:pos:R:3:initial_magmoms:R:1 pbc="T T T"
Si       1.35630540       1.35839052      -1.35750771       0.00000000
Si      -1.35899325      -1.35633798      -1.35706112       0.00000000
Si       1.35783666      -1.35769005       1.35774818       0.00000000
Si      -1.35944937       1.35884664       1.35987809       0.00000000
Si       2.71217097      -2.71278673      -0.00065271       0.00000000
Si       2.71383255       0.00102627      -2.71515283       0.00000000
Si      -0.00115659      -2.71451021      -2.71484365       0.00000000
Si       2.71331127       2.71709055      -0.00068707       0.00000000
Si      -0.00140094       2.71601541      -2.71501542       0.00000000
Si      -2.71658556       0.00114030      -2.71501542       0.00000000
