10
Lattice="16.28999089631971 0.0 0.0 0.0 16.28999089631971 0.0 0.0 0.0 34.35334932831803" Properties=species:S:1:pos:R:3:initial_magmoms:R:1 pbc="T T T"
Si      -0.64545867      -1.60241472       1.74418923       0.00000000
Si       2.29053690      -0.82929132      -0.43834898       0.00000000
Si      -1.31854518      -0.25438464      -2.29391183       0.00000000
Si       0.35189658       2.13355017       1.97734554       0.00000000
Si       3.28459621       0.09928755       1.52470556       0.00000000
Si      -0.31654728      -3.57814248       0.51942293       0.00000000
Si       0.22129965       3.63796425       0.22470538       0.00000000
Si       1.72796175      -3.20324931      -0.56937273       0.00000000
Si       2.28517749       1.60275681      -2.56849830       0.00000000
Si       0.46103958       0.46584513      -3.83565666       0.00000000
