10
Lattice="16.28999089631971 0.0 0.0 0.0 16.28999089631971 0.0 0.0 0.0 34.35334932831803" Properties=species:S:1:pos:R:3:initial_magmoms:R:1 pbc="T T T"
Si      -1.42045542      -1.26315918       1.36145976       0.00000000
Si      -1.39828473       1.04811489      -1.55473040       0.00000000
Si       1.35101115       1.49490072       1.32286375       0.00000000
Si       1.04060520      -1.79357787      -1.33067773       0.00000000
Si      -1.43850474      -0.95118939      -3.04556353       0.00000000
Si      -2.46264075       2.81487942      -0.16266320       0.00000000
Si       2.80329888      -2.50255125       0.10126072       0.00000000
Si      -0.03187953      -2.63305044       2.73115261       0.00000000
Si       2.69821362       0.10267587       2.73347146       0.00000000
Si      -2.74108572       0.10562436       2.74594517       0.00000000
