10
Lattice="16.28999089631971 0.0 0.0 0.0 16.28999089631971 0.0 0.0 0.0 34.35334932831803" Properties=species:S:1:pos:R:3:initial_magmoms:R:1 pbc="T T T"
Si       1.35689184       1.35793440      -1.35778254       0.00000000
Si      -1.35817875      -1.35739683      -1.35761077       0.00000000
Si       1.35739683      -1.36115982       1.35881314       0.00000000
Si      -1.36039419       1.36037790       1.36125223       0.00000000
Si       2.71397916      -2.71349046      -0.00089319       0.00000000
Si       2.71404432       0.00136836      -2.71477495       0.00000000
Si       2.71267596       2.71635750      -0.00089319       0.00000000
Si      -0.00073305      -2.71456560      -2.71522154       0.00000000
Si      -2.71549413       0.00050499      -2.71518719       0.00000000
Si      -0.00086337       2.71554300      -2.71529025       0.00000000
