10
Lattice="16.28999089631971 0.0 0.0 0.0 16.28999089631971 0.0 0.0 0.0 34.35334932831803" Properties=species:S:1:pos:R:3:initial_magmoms:R:1 pbc="T T T"
Si      -1.34408790       1.21821507      -1.47018676       0.00000000
Si      -0.90350856       0.11240100       2.15849085       0.00000000
Si       2.27431206       0.59065911      -0.10330058       0.00000000
Si      -0.29686896      -2.05045488      -1.12754626       0.00000000
Si      -0.14788062       3.16508184      -0.92225053       0.00000000
Si       2.05187211       2.93387787       0.04771683       0.00000000
Si       2.66766669      -0.43567605      -2.37292458       0.00000000
Si      -0.16627203      -3.55486896       0.62509389       0.00000000
Si      -3.50388126       1.18082952      -0.37465784       0.00000000
Si       1.84963176      -2.59281414      -1.92770492       0.00000000
