10
Lattice="16.28999089631971 0.0 0.0 0.0 16.28999089631971 0.0 0.0 0.0 34.35334932831803" Properties=species:S:1:pos:R:3:initial_magmoms:R:1 pbc="T T T"
Si      -1.35752715      -1.35581670      -1.35747336       0.00000000
Si       1.36104579      -1.35558864       1.35623664       0.00000000
Si       1.35812988       1.35933826      -1.35750771       0.00000000
Si      -1.35676152       1.36275841       1.35895055       0.00000000
Si       2.71363707      -2.71217097      -0.00058401       0.00000000
Si      -2.71554300      -2.71220355      -0.00075577       0.00000000
Si       0.00009774      -2.71298547      -2.71498107       0.00000000
Si      -2.71410948       0.00185706      -2.71446577       0.00000000
Si       2.71513575       0.00193851      -2.71501542       0.00000000
Si       0.00047241       2.71637120      -2.71474059       0.00000000
