10
Lattice="16.28999089631971 0.0 0.0 0.0 16.28999089631971 0.0 0.0 0.0 34.35334932831803" Properties=species:S:1:pos:R:3:initial_magmoms:R:1 pbc="T T T"
Si      -1.35259128       1.35658233       1.35682064       0.00000000
Si      -1.35578412      -1.35842310      -1.35688935       0.00000000
Si       1.35868399       1.35656604      -1.35688935       0.00000000
Si       1.35814617      -1.35757602       1.36582123       0.00000000
Si      -0.00762372       2.69162928       2.72710781       0.00000000
Si      -2.69493615      -0.01283652       2.72841324       0.00000000
Si      -2.71363707       2.71217097       0.00058401       0.00000000
Si      -2.71353933      -0.00081450      -2.71439706       0.00000000
Si       0.00149868       2.71410948      -2.71443141       0.00000000
Si       0.00136836      -2.71498914      -2.71388176       0.00000000
