10
Lattice="16.28999089631971 0.0 0.0 0.0 16.28999089631971 0.0 0.0 0.0 34.35334932831803" Properties=species:S:1:pos:R:3:initial_magmoms:R:1 pbc="T T T"
Si       0.22243995      -2.34321876      -0.15101741       0.00000000
Si       1.48380138       1.00333368      -1.56620442       0.00000000
Si      -2.19975273       0.23120397      -0.96996736       0.00000000
Si       0.29422998       1.25146296       2.05687359       0.00000000
Si       0.70793442       3.08568831      -0.70321345       0.00000000
Si      -2.12937993       1.35847197       2.20874983       0.00000000
Si      -2.05187211      -2.93387787      -0.04771683       0.00000000
Si       3.57561332       0.27391635      -0.51090330       0.00000000
Si      -3.11384979       1.99905993       0.19423395       0.00000000
Si       1.55167204      -3.11984451       1.68125386       0.00000000
