10
Lattice="16.28999089631971 0.0 0.0 0.0 16.28999089631971 0.0 0.0 0.0 34.35334932831803" Properties=species:S:1:pos:R:3:initial_magmoms:R:1 pbc="T T T"
Si       2.13557990      -0.28207764       0.79493695       0.00000000
Si      -0.95538962      -2.05555365      -0.52533171       0.00000000
Si      -0.53103347       0.14704983       2.28036359       0.00000000
Si      -2.29372715       0.85602321       0.84842514       0.00000000
Si      -2.26761428       1.59909156      -1.43202017       0.00000000
Si       3.07649030       0.01420488      -1.43562727       0.00000000
Si      -3.09366389      -1.56263454       0.46170927       0.00000000
Si      -1.50472100       0.25084971      -3.21770826       0.00000000
Si      -0.88045562      -1.99236474      -2.94116365       0.00000000
Si       2.40503279      -2.43763560       1.85353600       0.00000000
