10
Lattice="16.28999089631971 0.0 0.0 0.0 16.28999089631971 0.0 0.0 0.0 34.35334932831803" Properties=species:S:1:pos:R:3:initial_magmoms:R:1 pbc="T T T"
Si       1.34342815       1.35208629      -1.38646760       0.00000000
Si      -1.37262702      -1.36348929      -1.38035270       0.00000000
Si      -1.42964202       1.30365612       1.45211689       0.00000000
Si       1.48735030      -1.33301070       1.44576151       0.00000000
Si       2.69031794       2.69273700      -0.00377887       0.00000000
Si      -2.73839691       2.68571601      -0.01906612       0.00000000
Si       2.70631472      -2.72632698      -0.02353206       0.00000000
Si       2.69953808      -0.00739566      -2.74541815       0.00000000
Si      -0.01332848       2.70703962      -2.74579604       0.00000000
Si      -2.73748467      -2.72652246      -0.00889752       0.00000000
