10
Lattice="16.28999089631971 0.0 0.0 0.0 16.28999089631971 0.0 0.0 0.0 34.35334932831803" Properties=species:S:1:pos:R:3:initial_magmoms:R:1 pbc="T T T"
Si       1.49558490       0.71009739       1.61666952       0.00000000
Si       0.73946826      -2.28265254      -0.11116750       0.00000000
Si      -2.29435528       0.02907765       0.75625505       0.00000000
Si       1.00942614       1.42798140      -1.90169942       0.00000000
Si      -2.33613098      -2.29475601       1.10356761       0.00000000
Si       3.04943913      -1.92241548      -0.43051641       0.00000000
Si       3.65099625       0.23332167       0.43807416       0.00000000
Si      -0.27041400       3.42283851      -1.43590210       0.00000000
Si      -0.25444980      -3.36062700       1.76006048       0.00000000
Si       1.10050353       2.93711958       2.16804109       0.00000000
