10
Lattice="16.28999089631971 0.0 0.0 0.0 16.28999089631971 0.0 0.0 0.0 34.35334932831803" Properties=species:S:1:pos:R:3:initial_magmoms:R:1 pbc="T T T"
Si       1.30352580      -1.52692686       1.25444761       0.00000000
Si      -0.81704124       1.68228459       1.45204818       0.00000000
Si       1.81514583       0.75665421      -1.54985222       0.00000000
Si      -2.37084823      -0.51046344      -0.71880988       0.00000000
Si      -2.52601537       2.06001711      -0.32463933       0.00000000
Si      -0.91895148       2.69361666      -1.94745811       0.00000000
Si      -2.28302884       0.41801769       2.85435410       0.00000000
Si       1.33002963      -3.50625960      -0.09055548       0.00000000
Si       0.02355534      -2.72109789       2.84711241       0.00000000
Si       1.47385404       3.09909105      -2.02080255       0.00000000
