10
Lattice="16.28999089631971 0.0 0.0 0.0 16.28999089631971 0.0 0.0 0.0 34.35334932831803" Properties=species:S:1:pos:R:3:initial_magmoms:R:1 pbc="T T T"
Si       1.35675663      -1.35495333       1.35932844       0.00000000
Si      -1.35876072      -1.35638685      -1.35726724       0.00000000
Si       1.35636567       1.35903228      -1.35730159       0.00000000
Si      -1.35910458       1.36089918       1.36283248       0.00000000
Si       2.71286655      -2.71443528       0.00037789       0.00000000
Si      -0.00149053      -2.71396287      -2.71408788       0.00000000
Si       2.71444668       0.00083079      -2.71450012       0.00000000
Si       2.71348557       2.71684850       0.00044659       0.00000000
Si      -2.71744471      -2.71295289      -0.00037789       0.00000000
Si      -2.71594603       0.00115659      -2.71480930       0.00000000
