10
Lattice="16.28999089631971 0.0 0.0 0.0 16.28999089631971 0.0 0.0 0.0 34.53561885213415" Properties=species:S:1:pos:R:3:initial_magmoms:R:1 pbc="T T T"
Si       1.35568638      -1.35578086      -1.35666347       0.00000000
Si      -1.35638685       1.35716877      -1.35642172       0.00000000
Si      -1.35171162      -1.36178047       1.36567728       0.00000000
Si       1.36212093       1.36327752       1.36025518       0.00000000
Si      -2.71480995      -2.71085511       0.00231389       0.00000000
Si       2.71415835      -2.71231338       0.00607827       0.00000000
Si      -2.71225242       2.71464705       0.00341903       0.00000000
Si      -0.00045612      -2.71354000      -2.71377591       0.00000000
Si      -2.71464705       0.00040725      -2.71384498       0.00000000
Si       2.71516833       0.00110772      -2.71405220       0.00000000
