10
Lattice="16.28999089631971 0.0 0.0 0.0 16.28999089631971 0.0 0.0 0.0 34.53561885213415" Properties=species:S:1:pos:R:3:initial_magmoms:R:1 pbc="T T T"
Si       1.29596724      -1.35725185      -1.41896576       0.00000000
Si      -1.42250796       1.36510200      -1.40287216       0.00000000
Si       1.88211402       0.93296088       1.22339045       0.00000000
Si      -0.90065781      -1.91307968       1.41060814       0.00000000
Si       2.63840985      -2.66885309       0.08540663       0.00000000
Si       2.64767886       0.00452862      -2.78464304       0.00000000
Si      -2.80280853       2.64054384       0.07791240       0.00000000
Si       2.71011843       2.77804773      -0.04282419       0.00000000
Si      -0.06713109      -2.70632649      -2.78232915       0.00000000
Si      -0.06457356       2.71917567      -2.78122401       0.00000000
