10
Lattice="16.28999089631971 0.0 0.0 0.0 16.28999089631971 0.0 0.0 0.0 34.53561885213415" Properties=species:S:1:pos:R:3:initial_magmoms:R:1 pbc="T T T"
Si       0.32679369      -0.67318914      -2.24381495       0.00000000
Si      -2.14281918       1.02782732      -0.21387921       0.00000000
Si      -0.37271520      -1.30836035       1.96877312       0.00000000
Si       1.79620056       1.41197810       1.03195940       0.00000000
Si      -1.84842630       2.35613021       1.78666670       0.00000000
Si       0.38636622       2.44605101       2.57010766       0.00000000
Si      -3.46399031      -1.06293390       0.09303901       0.00000000
Si      -2.75336349      -1.22598703       2.30511570       0.00000000
Si       0.46861443      -3.51744824       1.69953329       0.00000000
Si       2.13829056      -2.46027611      -2.22039978       0.00000000
