10
Lattice="16.28999089631971 0.0 0.0 0.0 16.28999089631971 0.0 0.0 0.0 34.53561885213415" Properties=species:S:1:pos:R:3:initial_magmoms:R:1 pbc="T T T"
Si      -1.45149929       1.26358272      -1.42956821       0.00000000
Si       1.28543152      -1.44476499      -1.42832492       0.00000000
Si      -1.07559125      -1.89979681       1.02025182       0.00000000
Si       1.43249275       1.18522782       1.58294097       0.00000000
Si       2.60839943       2.53420272       0.05169985       0.00000000
Si      -0.08612036       2.61876411      -2.80957777       0.00000000
Si       2.61525752      -2.81746899       0.08747877       0.00000000
Si       2.62996739      -0.10538001      -2.80829995       0.00000000
Si      -3.02491781       2.50701471      -0.05812348       0.00000000
Si      -2.79864971      -0.10345779      -2.80591699       0.00000000
