10
Lattice="16.28999089631971 0.0 0.0 0.0 16.28999089631971 0.0 0.0 0.0 34.53561885213415" Properties=species:S:1:pos:R:3:initial_magmoms:R:1 pbc="T T T"
Si      -1.39100310       0.18441909       1.88927209       0.00000000
Si       1.19109222      -2.15462943       0.19288154       0.00000000
Si      -1.86509097       0.18327879      -1.61657869       0.00000000
Si       1.42659675       2.06296560      -1.57112979       0.00000000
Si      -0.19850994       1.18286577      -3.04079387       0.00000000
Si       0.65101356       2.53692315       2.03280220       0.00000000
Si      -0.10850769      -0.82530027       3.57119220       0.00000000
Si       3.17228202      -1.48559913       1.25989462       0.00000000
Si      -1.56639753       2.41847856       2.54938627       0.00000000
Si       0.73163277       3.79495098      -0.02317341       0.00000000
