10
Lattice="16.28999089631971 0.0 0.0 0.0 16.28999089631971 0.0 0.0 0.0 34.53561885213415" Properties=species:S:1:pos:R:3:initial_magmoms:R:1 pbc="T T T"
Si       1.73830590      -0.19080477       1.52094950       0.00000000
Si      -1.42449534       1.77088590       0.50332239       0.00000000
Si       0.85108734       0.19945476      -2.18379201       0.00000000
Si       0.02008557      -2.45434914      -0.29034111       0.00000000
Si       2.28973869      -2.21534226       0.48961174       0.00000000
Si       0.11645721      -2.03190057      -2.58292038       0.00000000
Si       2.49948873       1.99809882       1.53780290       0.00000000
Si       0.62587809      -0.79175916       3.51234347       0.00000000
Si      -3.54403937       0.94993506       0.24800042       0.00000000
Si      -0.70213158       3.55892517      -0.83931961       0.00000000
