10
Lattice="16.28999089631971 0.0 0.0 0.0 16.28999089631971 0.0 0.0 0.0 34.53561885213415" Properties=species:S:1:pos:R:3:initial_magmoms:R:1 pbc="T T T"
Si      -1.51425324       1.38694689      -1.16568139       0.00000000
Si       1.11438261       1.44495558       1.60159509       0.00000000
Si      -1.58819355      -1.18760616       1.56280467       0.00000000
Si       1.24390440      -0.75613293      -2.33053393       0.00000000
Si      -0.19394874       2.93174388      -2.30048793       0.00000000
Si       2.78083332       2.63849130       0.37108543       0.00000000
Si      -0.22076208      -2.49282612       3.09526144       0.00000000
Si       2.48476257       0.21146049       3.10500049       0.00000000
Si      -3.02635620       2.73049722       0.22220230       0.00000000
Si      -2.66150907      -3.09177684       0.49921787       0.00000000
