10
Lattice="16.28999089631971 0.0 0.0 0.0 16.28999089631971 0.0 0.0 0.0 34.53561885213415" Properties=species:S:1:pos:R:3:initial_magmoms:R:1 pbc="T T T"
Si      -2.16658207       0.71081415      -0.57660701       0.00000000
Si       1.45998636       1.37249766      -1.27046252       0.00000000
Si       0.55504917      -2.20961958      -0.75201352       0.00000000
Si      -0.23049047       0.38221227       2.38206111       0.00000000
Si      -3.25608985      -0.74790648       0.93152977       0.00000000
Si       1.16559348       0.04419477      -3.27100843       0.00000000
Si      -0.15557764      -2.04656646      -2.96409022       0.00000000
Si       1.96886967       0.06543693       3.22386729       0.00000000
Si      -2.24555599       3.03828048      -0.12156545       0.00000000
Si       2.93569746      -2.29199290      -1.08835610       0.00000000
