10
Lattice="16.28999089631971 0.0 0.0 0.0 16.28999089631971 0.0 0.0 0.0 34.53561885213415" Properties=species:S:1:pos:R:3:initial_magmoms:R:1 pbc="T T T"
Si       0.20549835       2.01440511      -1.15473360       0.00000000
Si      -0.05110173      -1.78541658      -1.54353581       0.00000000
Si       1.96799490      -0.43639281       1.30251159       0.00000000
Si      -1.95092298      -0.46395549       1.36446853       0.00000000
Si       0.99028539      -2.36382561       2.19805523       0.00000000
Si       0.87581556      -3.34946835       0.04693393       0.00000000
Si      -0.77978601      -1.22494284       3.21633852       0.00000000
Si       2.26171989       1.84117725      -2.34890689       0.00000000
Si      -2.32580475      -1.78864200      -2.33018858       0.00000000
Si       0.91484640       3.60204480       0.52214431       0.00000000
