10
Lattice="16.28999089631971 0.0 0.0 0.0 16.28999089631971 0.0 0.0 0.0 34.53561885213415" Properties=species:S:1:pos:R:3:initial_magmoms:R:1 pbc="T T T"
Si      -1.77007140       1.13888277       1.01828329       0.00000000
Si       0.97770951       1.92743280      -0.89554363       0.00000000
Si       0.89036253      -1.03270455       1.92622522       0.00000000
Si      -0.11446983      -0.98564274      -2.15112129       0.00000000
Si      -0.99028539       2.36382561      -2.19805523       0.00000000
Si      -2.75952600      -0.59481306       2.17647045       0.00000000
Si      -2.94120837       1.89987012      -0.83358670       0.00000000
Si       1.30386789       3.28673556       0.93080452       0.00000000
Si      -0.72226602       2.91046914       2.10940224       0.00000000
Si       2.10015567      -0.76448970      -2.91100894       0.00000000
