10
Lattice="16.28999089631971 0.0 0.0 0.0 16.28999089631971 0.0 0.0 0.0 34.53561885213415" Properties=species:S:1:pos:R:3:initial_magmoms:R:1 pbc="T T T"
Si      -1.32030450      -1.54479699       1.13480653       0.00000000
Si       1.83681153       1.05564087       1.05243904       0.00000000
Si      -1.86075783       1.50084657      -0.02085953       0.00000000
Si       0.70885935      -0.58292136      -2.23017337       0.00000000
Si      -0.26596683       3.23993439       0.35744385       0.00000000
Si       0.28789317       2.38607775       2.53508852       0.00000000
Si       0.29396934      -2.84952825      -2.03673926       0.00000000
Si      -1.06303653       0.19046268      -3.51683310       0.00000000
Si      -2.71731861       1.15722531      -2.19971294       0.00000000
Si       0.19394874      -2.93174388       2.30048793       0.00000000
