10
Lattice="16.28999089631971 0.0 0.0 0.0 16.28999089631971 0.0 0.0 0.0 34.53561885213415" Properties=species:S:1:pos:R:3:initial_magmoms:R:1 pbc="T T T"
Si       1.35651717       1.35645201       1.35735419       0.00000000
Si      -1.35726651       1.35668007      -1.35697429       0.00000000
Si       1.35814617      -1.35798327      -1.35728512       0.00000000
Si      -1.35817875      -1.35861858       1.35731965       0.00000000
Si       2.71423980      -0.00187335      -2.71353416       0.00000000
Si      -2.71435383       2.71502996       0.00010361       0.00000000
Si      -0.00027693       2.71459833      -2.71505373       0.00000000
Si       2.71459818       2.71506082      -0.00020721       0.00000000
Si      -2.71482624      -2.71539639       0.00041443       0.00000000
Si       2.71529865      -2.71521720       0.00034536       0.00000000
