10
Lattice="16.28999089631971 0.0 0.0 0.0 16.28999089631971 0.0 0.0 0.0 34.53561885213415" Properties=species:S:1:pos:R:3:initial_magmoms:R:1 pbc="T T T"
Si      -1.33305957      -1.35909099      -1.36864734       0.00000000
Si       1.42586370      -1.26851859       1.39617224       0.00000000
Si       1.38118023       1.35793795      -1.37134112       0.00000000
Si      -1.34763912       1.35313657       1.52467935       0.00000000
Si       0.54765351       2.15118477       2.82159617       0.00000000
Si       2.35915038       0.36409779       2.84501134       0.00000000
Si      -2.67746512       2.72584058       0.00887566       0.00000000
Si      -2.69122203      -0.00241092      -2.73031848       0.00000000
Si      -2.70220312      -2.72135853       0.02956251       0.00000000
Si       0.02446758       2.71326959      -2.73018034       0.00000000
