10
Lattice="16.28999089631971 0.0 0.0 0.0 16.28999089631971 0.0 0.0 0.0 34.53561885213415" Properties=species:S:1:pos:R:3:initial_magmoms:R:1 pbc="T T T"
Si      -1.97252352      -1.28212074      -0.30857593       0.00000000
Si       0.57182787      -1.09724553       2.04416442       0.00000000
Si       0.55799766       2.27281568       0.48867928       0.00000000
Si       1.17900504      -0.64570302      -2.00683140       0.00000000
Si      -0.64123956      -3.28546494      -0.35336865       0.00000000
Si       1.38489435      -2.90919852      -1.53196637       0.00000000
Si       3.20647473       0.43947162      -1.54926873       0.00000000
Si      -1.19065239       3.48017021      -0.38876768       0.00000000
Si       2.51128269       2.62843615      -0.91768098       0.00000000
Si       0.10800270      -3.43671759       1.87759904       0.00000000
