10
Lattice="16.28999089631971 0.0 0.0 0.0 16.28999089631971 0.0 0.0 0.0 34.53561885213415" Properties=species:S:1:pos:R:3:initial_magmoms:R:1 pbc="T T T"
Si      -0.49031271      -2.23414581      -0.36276234       0.00000000
Si      -0.42156891       1.18244223      -1.97961731       0.00000000
Si      -1.48173840       0.34538058       1.82282552       0.00000000
Si       2.26033524       0.48311253       0.57287717       0.00000000
Si       0.69888987      -0.58663548      -3.05588594       0.00000000
Si       0.82670121      -2.73421853       1.48689737       0.00000000
Si      -0.67232088       2.54715327       2.04343917       0.00000000
Si       1.99495485      -0.88037676       2.59666556       0.00000000
Si       1.67391153       1.87527222       2.37556841       0.00000000
Si      -2.83968909      -2.06612912      -0.40724425       0.00000000
