10
Lattice="16.28999089631971 0.0 0.0 0.0 16.28999089631971 0.0 0.0 0.0 34.53561885213415" Properties=species:S:1:pos:R:3:initial_magmoms:R:1 pbc="T T T"
Si       0.45776529       2.07361926       0.93674465       0.00000000
Si      -2.12779980      -0.49214859      -0.80302266       0.00000000
Si       0.80167977      -1.73207497       1.36909630       0.00000000
Si       1.26068310      -0.30648006      -1.99502021       0.00000000
Si      -1.43260776      -2.68111313      -1.43461041       0.00000000
Si       0.93963978       2.44916892      -2.21611736       0.00000000
Si       3.37044987      -0.78759381      -0.96312988       0.00000000
Si       0.28334826      -3.60465839      -0.03626242       0.00000000
Si      -2.21601015       0.91927728      -2.76886025       0.00000000
Si       3.19246533      -1.38600533       1.38681309       0.00000000
