10
Lattice="16.28999089631971 0.0 0.0 0.0 16.28999089631971 0.0 0.0 0.0 34.53561885213415" Properties=species:S:1:pos:R:3:initial_magmoms:R:1 pbc="T T T"
Si      -1.34244261       1.31010696      -1.39673517       0.00000000
Si       1.34814411       1.36474362       1.36274175       0.00000000
Si      -1.36873467      -1.35008262       1.35804490       0.00000000
Si       1.31857776      -1.49470524      -1.30834121       0.00000000
Si      -2.43926460      -0.28566144      -2.74269747       0.00000000
Si       2.69985573       2.70725139      -0.01265040       0.00000000
Si       2.70282051       0.00516393       2.71912893       0.00000000
Si       2.70852201      -2.71816569       0.03803064       0.00000000
Si      -0.01071882      -2.70922248       2.71867997       0.00000000
Si      -2.71831230       2.71754667      -0.01000843       0.00000000
