10
Lattice="16.28999089631971 0.0 0.0 0.0 16.28999089631971 0.0 0.0 0.0 34.53561885213415" Properties=species:S:1:pos:R:3:initial_magmoms:R:1 pbc="T T T"
Si      -1.35804843      -1.35664749       1.35794129       0.00000000
Si       1.35728280       1.35822762       1.35773408       0.00000000
Si       1.36205577      -1.35782037      -1.35586915       0.00000000
Si      -1.35801585       1.35913986      -1.36063507       0.00000000
Si       2.71924083      -0.00894321      -2.68064933       0.00000000
Si       2.71353933       2.71438641       0.00044896       0.00000000
Si       0.01071882       2.70922248      -2.71867997       0.00000000
Si      -0.00040725      -2.71407690       2.71429394       0.00000000
Si       2.71441899       0.00141723       2.71460477       0.00000000
Si       2.71507059      -2.71404432       0.00117421       0.00000000
