10
Lattice="16.28999089631971 0.0 0.0 0.0 16.28999089631971 0.0 0.0 0.0 34.53561885213415" Properties=species:S:1:pos:R:3:initial_magmoms:R:1 pbc="T T T"
Si      -1.30898295       1.33566597       1.31490989       0.00000000
Si       1.12689333      -1.45117836       1.42538939       0.00000000
Si      -1.36635633      -1.34324082      -1.32969114       0.00000000
Si       1.35096228       1.37037996      -1.32478708       0.00000000
Si       1.86958701       0.43046325       2.66031474       0.00000000
Si      -2.11981770      -0.37616868       2.65789725       0.00000000
Si       0.32332392       2.36263644       2.58281677       0.00000000
Si      -0.61032114      -2.23604685       2.99475786       0.00000000
Si      -0.00693954      -2.69871543      -2.68290105       0.00000000
Si       2.70817992       0.01366731      -2.68400619       0.00000000
