10
Lattice="16.28999089631971 0.0 0.0 0.0 16.28999089631971 0.0 0.0 0.0 34.53561885213415" Properties=species:S:1:pos:R:3:initial_magmoms:R:1 pbc="T T T"
Si       1.35081567       1.35348723      -1.36260360       0.00000000
Si      -1.36212093      -1.36327752      -1.36025518       0.00000000
Si      -1.29968136       1.41024159       1.38156367       0.00000000
Si       1.40038614      -1.27104354       1.46144460       0.00000000
Si      -2.12768577      -0.43484526       2.64777831       0.00000000
Si       0.59735430       2.32055937       2.62498478       0.00000000
Si       2.10685086       0.46068120       2.96184540       0.00000000
Si      -0.37996425      -2.23938630       2.93787767       0.00000000
Si       2.71717200       2.69672805      -0.03291246       0.00000000
Si      -0.00324171       2.70842427      -2.71705680       0.00000000
