10
Lattice="16.28999089631971 0.0 0.0 0.0 16.28999089631971 0.0 0.0 0.0 34.53561885213415" Properties=species:S:1:pos:R:3:initial_magmoms:R:1 pbc="T T T"
Si      -1.98118980      -0.66903030      -1.06701308       0.00000000
Si      -0.90383436       0.54156105       2.17122104       0.00000000
Si       2.21506533      -1.06486101      -0.27887528       0.00000000
Si       1.39979970       2.06596296      -0.98430022       0.00000000
Si       3.16429992       0.96808212       0.17986160       0.00000000
Si      -0.33430338      -1.52500464       3.16184128       0.00000000
Si       1.43281953       0.91114857      -3.11176460       0.00000000
Si      -2.60558550      -2.60512938       0.37402096       0.00000000
Si      -3.17228202       1.48559913      -1.25989462       0.00000000
Si      -0.68567868      -3.29403348       1.61792558       0.00000000
