10
Lattice="16.28999089631971 0.0 0.0 0.0 16.28999089631971 0.0 0.0 0.0 34.53561885213415" Properties=species:S:1:pos:R:3:initial_magmoms:R:1 pbc="T T T"
Si       0.67481325       0.88959690       2.04374999       0.00000000
Si      -1.67268978       1.65809394      -0.17171119       0.00000000
Si      -1.13723748      -2.06073387       0.29666113       0.00000000
Si       1.62805518       0.16219953      -1.80914940       0.00000000
Si       2.35610415       2.30798349       1.28120310       0.00000000
Si       2.54115855       2.23818084      -1.13249265       0.00000000
Si      -3.41959680       0.31890933      -1.05047051       0.00000000
Si      -2.69413794      -1.91130570      -1.45515911       0.00000000
Si       0.70586199      -3.54823893       0.30816150       0.00000000
Si       1.03465935      -0.84165543       3.48485310       0.00000000
