10
Lattice="16.28999089631971 0.0 0.0 0.0 16.28999089631971 0.0 0.0 0.0 34.53561885213415" Properties=species:S:1:pos:R:3:initial_magmoms:R:1 pbc="T T T"
Si       1.34244261      -1.31010696       1.39673517       0.00000000
Si      -1.09682199      -1.59576840      -1.34596230       0.00000000
Si       1.18767132       1.48346514      -1.39859461       0.00000000
Si      -1.37586969       1.40743971       1.38672675       0.00000000
Si      -2.23479252      -0.24687495      -2.96509662       0.00000000
Si       2.64173301       2.74530483       0.02919988       0.00000000
Si      -0.02629206      -2.66018958       2.75478007       0.00000000
Si       2.69058672       0.05463666       2.75947692       0.00000000
Si       2.66102037      -2.80481220       0.08839397       0.00000000
Si       0.65265885      -2.87367003      -2.52196985       0.00000000
