10
Lattice="16.28999089631971 0.0 0.0 0.0 16.28999089631971 0.0 0.0 0.0 34.53561885213415" Properties=species:S:1:pos:R:3:initial_magmoms:R:1 pbc="T T T"
Si      -1.33307586       1.16887266       1.52568089       0.00000000
Si       1.40629941      -1.38448710       1.27806036       0.00000000
Si      -1.36287027      -1.34861652      -1.36094589       0.00000000
Si       1.35549090       1.36518345      -1.36253453       0.00000000
Si       2.69296506       2.71844262       0.00908287       0.00000000
Si      -2.70850572       2.71604799       0.02700687       0.00000000
Si       2.70615996       0.00648342      -2.72075211       0.00000000
Si      -0.00513135      -2.70845685      -2.72099386       0.00000000
Si       2.71528236      -2.72015307      -0.03684953       0.00000000
Si      -2.74181877      -2.69382843       0.01595546       0.00000000
