10
Lattice="16.28999089631971 0.0 0.0 0.0 16.28999089631971 0.0 0.0 0.0 34.53561885213415" Properties=species:S:1:pos:R:3:initial_magmoms:R:1 pbc="T T T"
Si      -1.38223908      -1.13435415      -1.57634467       0.00000000
Si      -1.48840101       0.36701370       1.98690433       0.00000000
Si       1.19685888       1.62033372      -1.58352808       0.00000000
Si       1.34794863      -1.99932057       0.97932709       0.00000000
Si      -3.32716734      -1.03014702       1.34771874       0.00000000
Si      -2.63220336      -2.76213240      -0.20023763       0.00000000
Si      -0.04916322      -2.30322681      -3.10202555       0.00000000
Si       2.91245652       2.58755247      -0.26157292       0.00000000
Si       2.98944306      -2.66074344      -0.55605831       0.00000000
Si       2.64380184       0.41521581      -3.09294268       0.00000000
