10
Lattice="16.28999089631971 0.0 0.0 0.0 16.28999089631971 0.0 0.0 0.0 34.53561885213415" Properties=species:S:1:pos:R:3:initial_magmoms:R:1 pbc="T T T"
Si       1.64149443      -0.66142287      -1.53538540       0.00000000
Si      -0.83466702      -2.24541360       0.66715946       0.00000000
Si       2.11717872       0.26086806       1.45350140       0.00000000
Si      -1.34794863       1.99932057      -0.97932709       0.00000000
Si       0.00918756      -1.68839334      -2.80329228       0.00000000
Si      -0.80164719      -3.40022799      -1.46030492       0.00000000
Si      -2.83634964       2.36633427       1.00757724       0.00000000
Si      -2.73018771       0.86496642      -2.55567176       0.00000000
Si       2.65919589       1.13064003      -2.62080597       0.00000000
Si       0.92983320      -3.34329444       1.83132128       0.00000000
