10
Lattice="16.28999089631971 0.0 0.0 0.0 16.28999089631971 0.0 0.0 0.0 34.53561885213415" Properties=species:S:1:pos:R:3:initial_magmoms:R:1 pbc="T T T"
Si       2.06970966       0.24029379       1.15842891       0.00000000
Si       0.87535944      -0.87483816      -2.05276380       0.00000000
Si      -1.73493387       1.57789827      -0.51737840       0.00000000
Si      -1.62158805      -0.91095309       1.88799427       0.00000000
Si       1.49999949       1.30139181      -2.82915948       0.00000000
Si       0.59618142       2.61379566       2.35881862       0.00000000
Si       3.22286247      -1.64333520       0.16269739       0.00000000
Si      -0.87154758      -2.21402277      -2.93152311       0.00000000
Si       2.27543607       2.82696660      -1.14278427       0.00000000
Si       1.80087579       0.81938700       3.45449628       0.00000000
