10
Lattice="16.28999089631971 0.0 0.0 0.0 16.28999089631971 0.0 0.0 0.0 34.53561885213415" Properties=species:S:1:pos:R:3:initial_magmoms:R:1 pbc="T T T"
Si       0.35984610      -1.73125233       1.44110311       0.00000000
Si       1.68129090       1.41838659      -0.76254689       0.00000000
Si      -0.67481325      -0.88959690      -2.04374999       0.00000000
Si      -1.15315281       1.88362899       0.99573152       0.00000000
Si      -2.34750303       0.76849704      -2.21546119       0.00000000
Si      -1.95699915      -1.89441297       2.16842365       0.00000000
Si       0.77444289       3.43554471       0.05774359       0.00000000
Si      -3.22286247       1.64333520      -0.16269739       0.00000000
Si      -1.81205073      -2.95033077      -1.74708886       0.00000000
Si       1.77974766      -0.98749980       3.34039053       0.00000000
