10
Lattice="16.28999089631971 0.0 0.0 0.0 16.28999089631971 0.0 0.0 0.0 34.53561885213415" Properties=species:S:1:pos:R:3:initial_magmoms:R:1 pbc="T T T"
Si       1.66947250      -0.38216992      -1.73662456       0.00000000
Si      -0.72799358      -2.15810313       0.95940003       0.00000000
Si      -1.83951471       1.10236385      -1.37417304       0.00000000
Si       1.40735011       0.91884071       1.92471087       0.00000000
Si      -0.32339560      -0.05657843       3.23291704       0.00000000
Si       0.57190117      -2.07324852      -3.07436251       0.00000000
Si       3.32536729      -0.59643880       1.79782172       0.00000000
Si       3.90429760      -0.62844865      -0.53070915       0.00000000
Si      -3.33200451       2.46709118       0.04610508       0.00000000
Si      -1.71276222      -2.66268588      -2.68107066       0.00000000
