10
Lattice="16.28999089631971 0.0 0.0 0.0 16.28999089631971 0.0 0.0 0.0 34.53561885213415" Properties=species:S:1:pos:R:3:initial_magmoms:R:1 pbc="T T T"
Si       1.35601218       1.35829909      -1.35752686       0.00000000
Si       1.35749457      -1.35708732       1.35766501       0.00000000
Si      -1.35853713      -1.35834165      -1.35569648       0.00000000
Si      -1.35817875       1.35859252       1.35763047       0.00000000
Si      -2.70883152      -0.00568521      -2.71671144       0.00000000
Si      -0.00166158      -2.71090035      -2.71543362       0.00000000
Si       0.00040725      -2.71422351       2.71467384       0.00000000
Si      -2.71463076      -2.71445157       0.00055257       0.00000000
Si       2.71498914      -2.71409319       0.00013814       0.00000000
Si       2.71573848      -0.00021177       2.71505373       0.00000000
