10
Lattice="16.28999089631971 0.0 0.0 0.0 16.28999089631971 0.0 0.0 0.0 34.53561885213415" Properties=species:S:1:pos:R:3:initial_magmoms:R:1 pbc="T T T"
Si       1.71559764       0.96721875       1.32195516       0.00000000
Si       1.44694296      -1.20511791      -1.50941460       0.00000000
Si      -1.25315712       1.51143507      -1.48872775       0.00000000
Si      -1.19685888      -1.62033372       1.58352808       0.00000000
Si       2.81028564      -2.48901426      -0.05795080       0.00000000
Si      -2.57909796      -2.75468787       0.00718341       0.00000000
Si       3.48840576      -0.68303970       1.34861667       0.00000000
Si       0.10946880      -2.55837708      -2.88103201       0.00000000
Si       2.74432743       2.72412783      -0.17347251       0.00000000
Si      -2.60986977       0.15535773      -2.87740576       0.00000000
