10
Lattice="16.28999089631971 0.0 0.0 0.0 16.28999089631971 0.0 0.0 0.0 34.53561885213415" Properties=species:S:1:pos:R:3:initial_magmoms:R:1 pbc="T T T"
Si       0.56884680       1.48691862       1.72664377       0.00000000
Si      -1.19568600      -1.73879460       1.07398928       0.00000000
Si       1.76463054      -0.70858242      -1.62559249       0.00000000
Si      -0.54832140       1.62978192      -1.92149384       0.00000000
Si       0.87021180      -2.97834957      -1.57589570       0.00000000
Si       0.21563073      -3.60282672       0.79839488       0.00000000
Si      -1.69497450      -0.78050277       3.20791182       0.00000000
Si       0.49115979       0.18713952       3.68774998       0.00000000
Si       2.19053259       2.90406717       0.85517147       0.00000000
Si      -3.46639797      -1.46124558       0.48180669       0.00000000
