10
Lattice="16.28999089631971 0.0 0.0 0.0 16.28999089631971 0.0 0.0 0.0 34.53561885213415" Properties=species:S:1:pos:R:3:initial_magmoms:R:1 pbc="T T T"
Si      -0.49360329      -1.86098589       1.34205490       0.00000000
Si       0.49928850      -0.95829183      -2.13392255       0.00000000
Si      -2.03294313       0.87949710      -0.94879759       0.00000000
Si       2.18613429       0.96764229       0.47983816       0.00000000
Si      -1.77142347      -0.68074281      -2.72610513       0.00000000
Si       1.67436765      -1.93245012       2.28011190       0.00000000
Si       2.26382130       2.26742139      -1.48126806       0.00000000
Si       3.32120520      -1.09423188       0.75415473       0.00000000
Si       1.69497450       0.78050277      -3.20791182       0.00000000
Si      -2.32666812      -1.39807296       2.70262090       0.00000000
