10
Lattice="16.28999089631971 0.0 0.0 0.0 16.28999089631971 0.0 0.0 0.0 34.53561885213415" Properties=species:S:1:pos:R:3:initial_magmoms:R:1 pbc="T T T"
Si      -0.55571706       0.48039210      -2.33961681       0.00000000
Si      -1.91694204      -0.72741366       1.35786328       0.00000000
Si       0.71032545       1.84640375       1.46889190       0.00000000
Si       1.75286916      -1.79304030       0.45948427       0.00000000
Si      -2.11496328       2.25928358      -1.81170504       0.00000000
Si      -1.66135194      -1.61560962      -2.78112040       0.00000000
Si       2.07945108       0.54481029       2.97013192       0.00000000
Si      -2.00414241      -3.03266043      -0.89461117       0.00000000
Si      -0.67336344      -2.17629513       2.97879000       0.00000000
Si       0.65461365      -3.56522940       1.62886098       0.00000000
