10
Lattice="16.28999089631971 0.0 0.0 0.0 16.28999089631971 0.0 0.0 0.0 34.53561885213415" Properties=species:S:1:pos:R:3:initial_magmoms:R:1 pbc="T T T"
Si       1.68985944       0.94239279       1.31099572       0.00000000
Si      -0.90593577      -1.82145983       1.15090577       0.00000000
Si       1.40809131       0.53380701      -1.81476069       0.00000000
Si      -1.99728432       1.71488088       0.12827133       0.00000000
Si      -0.47488608       1.38816864      -2.91872690       0.00000000
Si      -2.49717555       0.59917878      -2.07139502       0.00000000
Si      -2.25297216      -0.45612000       2.68705441       0.00000000
Si       2.44639962       2.56173282      -0.22622494       0.00000000
Si       0.44758404       2.28332043       2.71644078       0.00000000
Si      -0.94236021       3.50678088       1.37006893       0.00000000
