10
Lattice="16.28999089631971 0.0 0.0 0.0 16.28999089631971 0.0 0.0 0.0 34.53561885213415" Properties=species:S:1:pos:R:3:initial_magmoms:R:1 pbc="T T T"
Si      -1.33185411      -1.34544614      -1.38676128       0.00000000
Si      -1.35163017       1.35582647       1.35935725       0.00000000
Si       1.36440461      -1.35831082       1.35835572       0.00000000
Si       1.35720815       1.35489794      -1.37793743       0.00000000
Si       2.62165626      -0.21225544      -2.66685579       0.00000000
Si      -2.70464499       2.71205042       0.00231389       0.00000000
Si      -2.70976005      -0.00099858       2.71584805       0.00000000
Si       0.00480555       2.71358168       2.71640062       0.00000000
Si      -2.71241532      -2.71889615      -0.00404067       0.00000000
Si       0.00566892      -2.71729973       2.71512280       0.00000000
