10
Lattice="16.28999089631971 0.0 0.0 0.0 16.28999089631971 0.0 0.0 0.0 34.53561885213415" Properties=species:S:1:pos:R:3:initial_magmoms:R:1 pbc="T T T"
Si      -1.35682668      -1.35776103      -1.35714697       0.00000000
Si      -1.35518139       1.35523189       1.36156753       0.00000000
Si       1.35829269       1.35734959      -1.35707790       0.00000000
Si       1.35767376      -1.35803770       1.36239639       0.00000000
Si       2.71421278       2.71461610       0.00124328       0.00000000
Si       2.71525860       0.00018082      -2.71384498       0.00000000
Si      -2.71511946       0.00119243      -2.71405220       0.00000000
Si      -0.00055386       2.71577269      -2.71349963       0.00000000
Si       2.71514294      -2.71432681      -0.00003454       0.00000000
Si      -2.71417464      -2.71546711       0.00027629       0.00000000
