10
Lattice="16.28999089631971 0.0 0.0 0.0 16.28999089631971 0.0 0.0 0.0 34.53561885213415" Properties=species:S:1:pos:R:3:initial_magmoms:R:1 pbc="T T T"
Si       0.44839854      -0.24720727      -2.26691929       0.00000000
Si      -0.84330072       2.05509916       0.71654542       0.00000000
Si       2.24375595      -0.75657602       0.43407844       0.00000000
Si      -1.88843454      -0.87675549       1.26327911       0.00000000
Si       0.23275152       2.00080459       2.82156164       0.00000000
Si      -0.50849235      -1.51186417       3.23208677       0.00000000
Si       2.26820398      -2.10340294      -1.99581453       0.00000000
Si       3.56492708       1.33418521       0.12716022       0.00000000
Si      -3.26764368       1.19070289       1.59430320       0.00000000
Si      -1.35275418      -1.31136685      -3.38880949       0.00000000
