10
Lattice="16.28999089631971 0.0 0.0 0.0 16.28999089631971 0.0 0.0 0.0 34.53561885213415" Properties=species:S:1:pos:R:3:initial_magmoms:R:1 pbc="T T T"
Si      -1.35738217       1.35775521      -1.35756140       0.00000000
Si       1.35782037      -1.35755973      -1.35745779       0.00000000
Si       1.35754344       1.35661491       1.35911550       0.00000000
Si      -1.35800119      -1.35842310       1.35797583       0.00000000
Si       2.71425609      -0.00257382      -2.71491559       0.00000000
Si      -2.71446379       2.71482624      -0.00027629       0.00000000
Si      -0.00003258       2.71489140      -2.71453569       0.00000000
Si      -2.71486601       0.00441459       2.71463930       0.00000000
Si      -2.71392128      -2.71568961      -0.00034536       0.00000000
Si       2.71523349       2.71533123       0.00013814       0.00000000
