10
Lattice="16.28999089631971 0.0 0.0 0.0 16.28999089631971 0.0 0.0 0.0 34.53561885213415" Properties=species:S:1:pos:R:3:initial_magmoms:R:1 pbc="T T T"
Si       0.81413415      -2.09660445      -0.79041715       0.00000000
Si       1.07890692       1.96543737      -0.82857903       0.00000000
Si       0.06380793      -0.01220121       2.43859595       0.00000000
Si      -2.08867122       0.67557888      -1.10897388       0.00000000
Si      -1.17907020      -3.28994469      -0.08475046       0.00000000
Si      -2.12955912       2.81561247      -0.12063298       0.00000000
Si      -1.20093138       0.55946376      -3.29404370       0.00000000
Si      -0.02484225       3.52505826       0.52435459       0.00000000
Si      -2.96896653      -1.91721897       0.94164871       0.00000000
Si       0.63670347       2.04416694      -3.10257812       0.00000000
