10
Lattice="16.28999089631971 0.0 0.0 0.0 16.28999089631971 0.0 0.0 0.0 34.53561885213415" Properties=species:S:1:pos:R:3:initial_magmoms:R:1 pbc="T T T"
Si       0.58642371      -1.39215969      -1.80269124       0.00000000
Si       1.70970066       1.37528325       0.86280385       0.00000000
Si      -2.34623241       0.67188105      -0.33212923       0.00000000
Si       0.32104332      -2.75564898       0.22109716       0.00000000
Si      -0.48187449      -0.37554966       3.15286201       0.00000000
Si      -0.93963978      -2.44916892       2.21611736       0.00000000
Si      -1.67391153      -1.87527222      -2.37556841       0.00000000
Si       0.44031870       3.33488880       1.03555111       0.00000000
Si       1.63784547       0.63166104       3.06410542       0.00000000
Si      -3.15564993      -1.52989164      -0.55274289       0.00000000
