10
Lattice="16.28999089631971 0.0 0.0 0.0 16.28999089631971 0.0 0.0 0.0 34.53561885213415" Properties=species:S:1:pos:R:3:initial_magmoms:R:1 pbc="T T T"
Si      -1.35718506       1.35747828       1.35752686       0.00000000
Si       1.35852122       1.35708732      -1.35683615       0.00000000
Si       1.35804340      -1.35741312       1.35714697       0.00000000
Si      -1.35822762      -1.35883035      -1.35711244       0.00000000
Si      -2.71290402       0.00074934      -2.71349963       0.00000000
Si       0.00066789      -2.71404432      -2.71415580       0.00000000
Si      -0.00167787       2.71358820       2.71477744       0.00000000
Si       2.71376317       0.00035838       2.71484652       0.00000000
Si       0.00013032      -2.71472850       2.71412127       0.00000000
Si      -2.71448415      -2.71498914       0.00017268       0.00000000
