10
Lattice="16.28999089631971 0.0 0.0 0.0 16.28999089631971 0.0 0.0 0.0 34.53561885213415" Properties=species:S:1:pos:R:3:initial_magmoms:R:1 pbc="T T T"
Si      -2.31373942      -0.57534651      -0.10688780       0.00000000
Si      -0.45942687       2.27315547      -0.57232460       0.00000000
Si       1.11855448       0.14643081       2.13996628       0.00000000
Si       0.68281653      -1.96968906      -1.32641025       0.00000000
Si       2.79849331       1.18483686      -1.49967555       0.00000000
Si       1.85872321      -0.62071416      -2.85765138       0.00000000
Si      -3.00961564       0.57681261       1.76307886       0.00000000
Si       1.58565394      -2.14501833       2.50552601       0.00000000
Si      -3.03190036       1.23373944      -1.73254936       0.00000000
Si      -1.09760947       1.98421974      -2.93425142       0.00000000
