10
Lattice="16.28999089631971 0.0 0.0 0.0 16.28999089631971 0.0 0.0 0.0 34.53561885213415" Properties=species:S:1:pos:R:3:initial_magmoms:R:1 pbc="T T T"
Si      -1.17590668      -1.34897490       1.53124112       0.00000000
Si       1.38030057      -1.27544184      -1.48078456       0.00000000
Si       0.93977010       1.80555102       1.35797583       0.00000000
Si      -1.34939681       1.42012962      -1.47173622       0.00000000
Si      -1.85872321       0.62071416       2.85765138       0.00000000
Si      -2.60839943      -2.53420272      -0.05169985       0.00000000
Si       2.60635113       2.80513800      -0.06623935       0.00000000
Si       2.80280853      -2.64054384      -0.07791240       0.00000000
Si       0.02156796      -2.63958273      -2.85999980       0.00000000
Si      -2.69451980       0.08456139      -2.86127762       0.00000000
