10
Lattice="16.28999089631971 0.0 0.0 0.0 16.28999089631971 0.0 0.0 0.0 34.53561885213415" Properties=species:S:1:pos:R:3:initial_magmoms:R:1 pbc="T T T"
Si       1.35927018      -1.35661491       1.35576555       0.00000000
Si       1.35734796       1.35770608      -1.35742326       0.00000000
Si      -1.35824391      -1.35687555      -1.35738872       0.00000000
Si      -1.35930276       1.36003091       1.36243093       0.00000000
Si       2.71673217      -0.01251072       2.70455489       0.00000000
Si       2.71220355      -2.71565703       0.00034536       0.00000000
Si      -0.00074934      -2.71388142      -2.71491559       0.00000000
Si      -2.71533123      -2.71401174      -0.00037989       0.00000000
Si       2.71448415       0.00035838      -2.71505373       0.00000000
Si       2.71417464       2.71546711      -0.00027629       0.00000000
