10
Lattice="16.28999089631971 0.0 0.0 0.0 16.28999089631971 0.0 0.0 0.0 34.53561885213415" Properties=species:S:1:pos:R:3:initial_magmoms:R:1 pbc="T T T"
Si      -1.35293337       1.35904212       1.35542019       0.00000000
Si      -1.35550719      -1.35610992      -1.35725058       0.00000000
Si       1.35903408       1.35935163      -1.35711244       0.00000000
Si       1.36203373      -1.35837423       1.35921911       0.00000000
Si       0.00452862       2.70314631       2.70420954       0.00000000
Si      -2.71220355       2.71565703      -0.00034536       0.00000000
Si      -2.71295289       0.00177561      -2.71526094       0.00000000
Si       0.00167787      -2.71358820      -2.71477744       0.00000000
Si       2.71544104      -2.71322982       0.00006907       0.00000000
Si      -2.71549413      -2.71534752      -0.00055257       0.00000000
