10
Lattice="16.28999089631971 0.0 0.0 0.0 16.28999089631971 0.0 0.0 0.0 34.53561885213415" Properties=species:S:1:pos:R:3:initial_magmoms:R:1 pbc="T T T"
Si      -1.71559764      -0.96721875      -1.32195516       0.00000000
Si       1.77280812      -1.65025845       0.02666151       0.00000000
Si      -0.86586237       0.28212651       2.34880329       0.00000000
Si       1.02872979       1.75690908      -1.49542767       0.00000000
Si      -0.26865468      -2.17233666      -2.83136976       0.00000000
Si       1.44708957      -2.05623783       2.64470463       0.00000000
Si       2.46456297       0.53419797      -2.85644263       0.00000000
Si       0.49304943       2.19152043       3.15666093       0.00000000
Si       1.09468800      -3.45623301      -1.37990596       0.00000000
Si      -2.91245652      -2.58755247       0.26157292       0.00000000
