10
Lattice="16.28999089631971 0.0 0.0 0.0 16.28999089631971 0.0 0.0 0.0 34.53561885213415" Properties=species:S:1:pos:R:3:initial_magmoms:R:1 pbc="T T T"
Si       0.82848026       0.02021589       2.23987788       0.00000000
Si       1.37427883      -1.27782018      -1.52353968       0.00000000
Si      -2.03900301      -1.18371285       0.55388256       0.00000000
Si      -0.45823770       2.25122003      -0.87413154       0.00000000
Si      -0.40374765       1.77934271       3.20794636       0.00000000
Si      -3.68176806       0.40661469       1.06628783       0.00000000
Si      -2.84174163      -2.45643426      -1.29536272       0.00000000
Si       0.26604828      -1.86227280       3.54622293       0.00000000
Si      -1.96120197      -2.20806063       2.72168457       0.00000000
Si      -2.51351442       2.26045646       2.17605602       0.00000000
