10
Lattice="16.28999089631971 0.0 0.0 0.0 16.28999089631971 0.0 0.0 0.0 34.53561885213415" Properties=species:S:1:pos:R:3:initial_magmoms:R:1 pbc="T T T"
Si       1.35696591      -1.35716877      -1.35676708       0.00000000
Si       1.35592009       1.35726651       1.35832118       0.00000000
Si      -1.35829269      -1.35734959       1.35707790       0.00000000
Si      -1.35884655       1.35842310      -1.35642172       0.00000000
Si       2.71291130      -0.00102627      -2.71432848       0.00000000
Si       0.00075251      -2.71346941      -2.71446662       0.00000000
Si       2.71465433      -2.71404327       0.00024175       0.00000000
Si      -2.71528227       0.00066789      -2.71346509       0.00000000
Si       2.71392128       2.71568961       0.00034536       0.00000000
Si      -0.00236196       2.71549413      -2.71446662       0.00000000
