10
Lattice="16.28999089631971 0.0 0.0 0.0 16.28999089631971 0.0 0.0 0.0 34.53561885213415" Properties=species:S:1:pos:R:3:initial_magmoms:R:1 pbc="T T T"
Si       2.21741109       0.11844459      -0.51658408       0.00000000
Si       0.17539443      -2.23405947      -0.66011419       0.00000000
Si      -0.09532908       0.11569158       2.36627832       0.00000000
Si      -1.39931100       1.41683904      -1.34930738       0.00000000
Si      -2.83080778       1.76609664       0.63666449       0.00000000
Si      -1.24835157       2.20195188       2.47920986       0.00000000
Si       1.45788984      -3.24377883       1.02180593       0.00000000
Si       2.29803030       1.37647242      -2.57255969       0.00000000
Si      -1.57224564       0.05688468      -3.45263135       0.00000000
Si       2.17937394       0.11891700       3.15293109       0.00000000
