10
Lattice="10.86 0.0 0.0 0.0 10.86 0.0 0.0 0.0 10.86" Properties=species:S:1:pos:R:3:initial_magmoms:R:1 pbc="T T T"
Si      -1.48517016      -1.38670254       1.00356174       0.00000000
Si       1.22982984      -1.38670254      -1.71143826       0.00000000
Si      -1.48517016       1.32829746      -1.71143826       0.00000000
Si       1.81686714       1.90819974       0.72886890       0.00000000
Si       2.50730250       0.02742150       2.05445136       0.00000000
Si      -0.02151366       2.77478430       1.94695908       0.00000000
Si      -0.12767016      -2.74420254       2.36106174       0.00000000
Si      -2.84267016      -0.02920254       2.36106174       0.00000000
Si       2.58732984      -2.74420254      -0.35393826       0.00000000
Si      -2.84267016       2.68579746      -0.35393826       0.00000000
