10
Lattice="10.86 0.0 0.0 0.0 10.86 0.0 0.0 0.0 10.86" Properties=species:S:1:pos:R:3:initial_magmoms:R:1 pbc="T T T"
Si      -1.37752584       1.32291090      -1.20741480       0.00000000
Si       1.33747416      -1.39208910      -1.20741480       0.00000000
Si       1.33747416       1.32291090       1.50758520       0.00000000
Si      -2.74051014       2.46922734       0.04435224       0.00000000
Si      -0.02002584       2.68041090      -2.56491480       0.00000000
Si       2.69497416      -0.03458910      -2.56491480       0.00000000
Si      -2.73502584      -0.03458910      -2.56491480       0.00000000
Si      -2.69941590      -2.60935392       0.18008052       0.00000000
Si      -0.02002584      -2.74958910      -2.56491480       0.00000000
Si      -0.03331848       2.61647808       2.75859204       0.00000000
