10
Lattice="10.86 0.0 0.0 0.0 10.86 0.0 0.0 0.0 10.86" Properties=species:S:1:pos:R:3:initial_magmoms:R:1 pbc="T T T"
Si       1.20698040       1.46354790       1.20155040       0.00000000
Si      -1.50801960      -1.25145210       1.20155040       0.00000000
Si       1.51049568      -1.67999856      -1.02206718       0.00000000
Si      -1.50801960       1.46354790      -1.51344960       0.00000000
Si      -0.04436310      -2.51996526       2.14494774       0.00000000
Si       2.39464086       0.13965960       2.58680856       0.00000000
Si       0.13236168      -2.54978682      -2.77754274       0.00000000
Si      -0.15051960       2.82104790       2.55905040       0.00000000
Si       2.56448040       2.82104790      -0.15594960       0.00000000
Si      -2.86551960       0.10604790       2.55905040       0.00000000
