10
Lattice="10.86 0.0 0.0 0.0 10.86 0.0 0.0 0.0 10.86" Properties=species:S:1:pos:R:3:initial_magmoms:R:1 pbc="T T T"
Si      -1.18766046       1.32388830      -1.38525816       0.00000000
Si      -1.18766046      -1.39111170       1.32974184       0.00000000
Si       1.52733954       1.32388830       1.32974184       0.00000000
Si      -2.39464086      -0.13965960      -2.58680856       0.00000000
Si      -2.43900396      -2.65962486      -0.44186082       0.00000000
Si      -2.54516046       2.68138830      -0.02775816       0.00000000
Si      -2.54516046      -0.03361170       2.68724184       0.00000000
Si       0.16983954       2.68138830       2.68724184       0.00000000
Si       0.16983954       2.68138830      -2.74275816       0.00000000
Si       0.16983954      -2.74861170       2.68724184       0.00000000
