10
Lattice="10.86 0.0 0.0 0.0 10.86 0.0 0.0 0.0 10.86" Properties=species:S:1:pos:R:3:initial_magmoms:R:1 pbc="T T T"
Si       1.37079264      -1.29356718      -1.25100684       0.00000000
Si      -1.34420736       1.42143282      -1.25100684       0.00000000
Si       1.37079264       1.42143282       1.46399316       0.00000000
Si       2.72829264       0.06393282      -2.60850684       0.00000000
Si       0.03331848      -2.61647808      -2.75859204       0.00000000
Si       2.72829264      -2.65106718       0.10649316       0.00000000
Si       0.01329264       2.77893282      -2.60850684       0.00000000
Si      -2.70719166      -0.14725074      -2.71423980       0.00000000
Si      -2.70170736       2.77893282       0.10649316       0.00000000
Si       2.72829264       2.77893282       0.10649316       0.00000000
