10
Lattice="10.86 0.0 0.0 0.0 10.86 0.0 0.0 0.0 10.86" Properties=species:S:1:pos:R:3:initial_magmoms:R:1 pbc="T T T"
Si      -1.28579142       1.14373176      -1.39964766       0.00000000
Si      -1.28579142      -1.57126824       1.31535234       0.00000000
Si       1.57804488       0.87575040       1.78598130       0.00000000
Si       1.42920858      -1.57126824      -1.39964766       0.00000000
Si       2.64300906       2.36564466       0.01866834       0.00000000
Si      -2.64329142       2.50123176      -0.04214766       0.00000000
Si       0.03428502       2.49702894       2.69146638       0.00000000
Si       0.07170858       2.50123176      -2.75714766       0.00000000
Si      -2.64329142      -0.21376824       2.67285234       0.00000000
Si      -2.64329142      -0.21376824      -2.75714766       0.00000000
