10
Lattice="10.86 0.0 0.0 0.0 10.86 0.0 0.0 0.0 10.86" Properties=species:S:1:pos:R:3:initial_magmoms:R:1 pbc="T T T"
Si      -1.35750000       1.35750000      -1.35750000       0.00000000
Si       1.35750000       1.35750000       1.35750000       0.00000000
Si      -1.35750000      -1.35750000       1.35750000       0.00000000
Si       1.35750000      -1.35750000      -1.35750000       0.00000000
Si      -2.56598994       2.58057492       0.13024398       0.00000000
Si       2.93823816       0.02534724       2.22818964       0.00000000
Si       2.64329142       0.21376824      -2.67285234       0.00000000
Si      -2.57800110      -0.01142472       2.78035548       0.00000000
Si       2.67757644       2.71079718       0.01861404       0.00000000
Si       0.00000000      -2.71500000       2.71500000       0.00000000
