10
Lattice="10.86 0.0 0.0 0.0 10.86 0.0 0.0 0.0 10.86" Properties=species:S:1:pos:R:3:initial_magmoms:R:1 pbc="T T T"
Si       1.21297512      -0.87646716      -1.51790220       0.00000000
Si      -1.58073816       1.33215276      -0.87068964       0.00000000
Si       1.13426184       1.33215276       1.84431036       0.00000000
Si      -1.58073816      -1.38284724       1.84431036       0.00000000
Si      -0.14715300      -2.67015906      -2.00802486       0.00000000
Si       2.34144858      -2.43697314       0.30747918       0.00000000
Si      -0.26066172       2.68544994      -2.20957560       0.00000000
Si       1.28309814       1.06417140      -3.11506068       0.00000000
Si       2.43540930       2.66801964       0.47410416       0.00000000
Si      -2.93823816      -0.02534724      -2.22818964       0.00000000
