10
Lattice="10.86 0.0 0.0 0.0 10.86 0.0 0.0 0.0 10.86" Properties=species:S:1:pos:R:3:initial_magmoms:R:1 pbc="T T T"
Si      -0.97670496      -1.74127068      -0.84588540       0.00000000
Si      -0.83401542       1.11393192       1.69909044       0.00000000
Si       0.45768384       1.78001916      -2.02064418       0.00000000
Si       1.63563546      -1.38689802       1.69978548       0.00000000
Si      -2.32950258      -0.19122288      -2.35940016       0.00000000
Si      -2.32950258       2.52377712       0.35559984       0.00000000
Si      -2.32950258      -2.90622288       0.35559984       0.00000000
Si       0.38549742      -2.90622288      -2.35940016       0.00000000
Si      -2.32950258      -0.19122288       3.07059984       0.00000000
Si       0.38549742       2.52377712       3.07059984       0.00000000
