10
Lattice="10.86 0.0 0.0 0.0 10.86 0.0 0.0 0.0 10.86" Properties=species:S:1:pos:R:3:initial_magmoms:R:1 pbc="T T T"
Si      -1.26525516       1.23177378      -1.43189100       0.00000000
Si      -1.26525516      -1.48322622       1.28310900       0.00000000
Si       1.44974484      -1.48322622      -1.43189100       0.00000000
Si      -2.54595324       2.51239584      -0.29505534       0.00000000
Si       2.65870176       2.42952318      -0.05231262       0.00000000
Si       2.57326614       0.04159380       2.61551154       0.00000000
Si      -1.19306874       3.20301582       1.62186498       0.00000000
Si       0.09224484       2.58927378      -2.78939100       0.00000000
Si      -2.62275516      -0.12572622      -2.78939100       0.00000000
Si      -2.62745754      -0.31827402       2.79662376       0.00000000
