10
Lattice="10.86 0.0 0.0 0.0 10.86 0.0 0.0 0.0 10.86" Properties=species:S:1:pos:R:3:initial_magmoms:R:1 pbc="T T T"
Si      -0.97422888      -1.54419426      -1.11852570       0.00000000
Si      -0.97422888       1.17080574       1.59647430       0.00000000
Si       1.74077112       1.17080574      -1.11852570       0.00000000
Si      -2.33172888      -0.18669426      -2.47602570       0.00000000
Si      -2.33172888       2.52830574       0.23897430       0.00000000
Si       0.38327112       2.52830574      -2.47602570       0.00000000
Si      -2.33172888      -2.90169426       0.23897430       0.00000000
Si      -2.33172888      -0.18669426       2.95397430       0.00000000
Si       0.38327112      -2.90169426      -2.47602570       0.00000000
Si       0.38327112       2.52830574       2.95397430       0.00000000
