10
Lattice="10.86 0.0 0.0 0.0 10.86 0.0 0.0 0.0 10.86" Properties=species:S:1:pos:R:3:initial_magmoms:R:1 pbc="T T T"
Si      -1.18228476       1.23135024       1.50504396       0.00000000
Si       1.53271524       1.23135024      -1.20995604       0.00000000
Si       1.53271524      -1.48364976       1.50504396       0.00000000
Si      -2.53978476       2.58885024       0.14754396       0.00000000
Si       0.17521524       2.58885024      -2.56745604       0.00000000
Si       0.09172356      -2.76325098      -2.47197492       0.00000000
Si      -2.53978476      -0.12614976       2.86254396       0.00000000
Si      -2.55068820      -2.85325866       0.14550228       0.00000000
Si       0.17521524       2.58885024       2.86254396       0.00000000
Si       2.89021524      -0.12614976      -2.56745604       0.00000000
