10
Lattice="10.86 0.0 0.0 0.0 10.86 0.0 0.0 0.0 10.86" Properties=species:S:1:pos:R:3:initial_magmoms:R:1 pbc="T T T"
Si       1.11279162      -1.49396676      -1.22089206       0.00000000
Si       1.11279162       1.22103324       1.49410794       0.00000000
Si      -1.60220838       1.22103324      -1.22089206       0.00000000
Si       2.47029162      -0.13646676      -2.57839206       0.00000000
Si       2.47029162       2.57853324       0.13660794       0.00000000
Si      -0.24470838       2.57853324      -2.57839206       0.00000000
Si       2.47029162      -2.85146676       0.13660794       0.00000000
Si       2.47029162      -0.13646676       2.85160794       0.00000000
Si      -0.24470838      -2.85146676      -2.57839206       0.00000000
Si      -2.94157218       2.54053410       0.06834198       0.00000000
