10
Lattice="16.290000149 0.0 0.0 0.0 16.290000149 0.0 0.0 0.0 29.1751946751" Properties=species:S:1:pos:R:3:initial_magmoms:R:1 pbc="T T T"
H        0.44891982       1.28920690      -0.65393281       0.00000000
Si      -0.81718786       0.98189605       1.94047137       0.00000000
Si      -1.87970312      -0.70851727      -1.27203849       0.00000000
Si       2.01007199      -1.36576990      -0.07731427       0.00000000
H        0.96723505      -0.25518285      -2.47423156       0.00000000
H       -0.65591686      -2.66566304      -1.04922753       0.00000000
Si       3.17161416       0.69182002      -0.67234236       0.00000000
Si      -2.32554413       2.29042289       0.65259075       0.00000000
Si       0.78639976      -2.95068918      -1.48983132       0.00000000
Si       2.00142200       0.85136428      -2.68957367       0.00000000
