10
Lattice="16.290000149 0.0 0.0 0.0 16.290000149 0.0 0.0 0.0 29.1751946751" Properties=species:S:1:pos:R:3:initial_magmoms:R:1 pbc="T T T"
Si       1.32841530      -1.36054081       1.37400579       0.00000000
Si      -1.37002322      -1.36868581      -1.32542909       0.00000000
Si      -1.36549460       1.35176050       1.34929440       0.00000000
Si       1.36808145       1.36469476      -1.34363442       0.00000000
Si      -2.69544279       0.01516599      -2.68478894       0.00000000
Si       0.00999717      -2.71706940      -2.66588341       0.00000000
Si       2.68384106       0.00760743       2.71160094       0.00000000
Si      -0.02319207       2.71251308       2.70363612       0.00000000
Si       2.72764487       0.01055592      -2.69797613       0.00000000
Si       2.71260920      -2.71527098       0.03932816       0.00000000
