10
Lattice="16.290000149 0.0 0.0 0.0 16.290000149 0.0 0.0 0.0 29.1751946751" Properties=species:S:1:pos:R:3:initial_magmoms:R:1 pbc="T T T"
Si      -0.90556111       0.90000622      -0.80832794       0.00000000
Si       0.90585433      -1.56530611       1.49505368       0.00000000
H       -2.01562688      -0.34754715       1.41207942       0.00000000
Si       1.92906182       0.58635856       1.88524273       0.00000000
Si       1.88004521      -1.96818225      -0.65775476       0.00000000
Si      -1.40214547      -1.65251137       1.85478383       0.00000000
Si      -2.21837222      -0.56751103      -2.08798116       0.00000000
Si       0.44093772       2.20858193      -2.20048071       0.00000000
Si      -2.04892364       2.32772699       0.65492477       0.00000000
Si       3.05009076       2.02746971       0.33440608       0.00000000
