10
Lattice="16.290000149 0.0 0.0 0.0 16.290000149 0.0 0.0 0.0 29.1751946751" Properties=species:S:1:pos:R:3:initial_magmoms:R:1 pbc="T T T"
H       -0.15283278       0.79632037       1.27553951       0.00000000
Si       1.08196552       1.16783011      -1.70502755       0.00000000
Si      -2.20996658       0.08008164      -0.80689836       0.00000000
Si       0.86276728      -2.07651890       0.79231076       0.00000000
H       -1.45371961      -1.88017553       1.71249640       0.00000000
H       -1.55536921       2.82589149       0.81775153       0.00000000
Si      -2.74522341      -1.92955052       0.90521877       0.00000000
Si       1.95758561      -0.61266691      -2.98937797       0.00000000
Si       0.73091602      -1.64968832       3.14998742       0.00000000
Si      -2.75056653       2.46078371      -0.07401747       0.00000000
