10
Lattice="16.290000149 0.0 0.0 0.0 16.290000149 0.0 0.0 0.0 29.1751946751" Properties=species:S:1:pos:R:3:initial_magmoms:R:1 pbc="T T T"
Si       1.38095218       1.31707909      -1.36353190       0.00000000
Si      -1.37350765      -1.32665761      -1.36356107       0.00000000
Si       1.35557236      -1.37033110       1.33928731       0.00000000
Si      -1.36943515       1.37852497       1.32309508       0.00000000
Si      -0.05251896       2.63616185      -2.64592758       0.00000000
Si       0.04564458      -2.65707821      -2.66573754       0.00000000
Si       2.72590346      -0.00905724       2.66710877       0.00000000
Si      -2.72971532       0.01643661       2.66719630       0.00000000
Si      -0.01511712       2.73224027       2.68365111       0.00000000
Si      -0.00063531      -2.72591975       2.69704252       0.00000000
