10
Lattice="16.290000149 0.0 0.0 0.0 16.290000149 0.0 0.0 0.0 29.1751946751" Properties=species:S:1:pos:R:3:initial_magmoms:R:1 pbc="T T T"
Si      -1.33908688       1.35682669       1.34405979       0.00000000
Si       1.40129839      -1.42270345       1.22424952       0.00000000
Si       1.39349548       1.23118192      -1.42617104       0.00000000
Si      -1.50356701      -1.28505295      -1.28578000       0.00000000
H        0.51289065       2.09057717      -2.30977099       0.00000000
Si       2.70910847       0.02713914       2.59337138       0.00000000
Si      -2.55098144       2.77089645      -0.10835667       0.00000000
Si      -2.66105297      -0.04629618       2.68659780       0.00000000
Si       2.41955372      -0.25700733      -2.89852642       0.00000000
Si       0.07361451      -2.80533351       2.59959737       0.00000000
