10
Lattice="16.290000149 0.0 0.0 0.0 16.290000149 0.0 0.0 0.0 29.1751946751" Properties=species:S:1:pos:R:3:initial_magmoms:R:1 pbc="T T T"
H       -0.18093303       1.38776140       0.60917806       0.00000000
Si       0.82749943      -1.24178671       1.71782087       0.00000000
Si       1.89832259       0.01144698      -1.33739092       0.00000000
Si      -1.90294895      -0.54736030      -1.28306671       0.00000000
Si       0.64293373       1.12262536      -2.93759200       0.00000000
Si      -2.62909199       1.64372617      -0.87945707       0.00000000
Si      -0.69206437       2.66880701      -1.78298367       0.00000000
Si       1.86849560       0.61033906       2.66995335       0.00000000
Si       2.32872068      -2.28063260      -1.03782002       0.00000000
Si      -1.00312192      -2.26678610       2.66066981       0.00000000
