10
Lattice="16.290000149 0.0 0.0 0.0 16.290000149 0.0 0.0 0.0 29.1751946751" Properties=species:S:1:pos:R:3:initial_magmoms:R:1 pbc="T T T"
Si      -1.31312551       0.25598106       1.91196721       0.00000000
Si       2.20996658      -0.08008164       0.80689836       0.00000000
Si      -1.28909450      -0.15498306      -2.02595469       0.00000000
Si      -0.54059995       2.38070207       0.73288089       0.00000000
Si      -0.53525683      -2.00963216       1.71211712       0.00000000
H        2.05713380       0.71623873       2.08243787       0.00000000
H       -2.42706178       0.80972704      -1.73525305       0.00000000
H        0.22286349      -1.62665425      -2.65564292       0.00000000
H        0.65459737       2.74580985       1.62464989       0.00000000
H        0.75624697      -1.96025717       2.51939476       0.00000000
