10
Lattice="16.290000149 0.0 0.0 0.0 16.290000149 0.0 0.0 0.0 29.1751946751" Properties=species:S:1:pos:R:3:initial_magmoms:R:1 pbc="T T T"
Si      -1.48667428       1.80014276      -0.11728428       0.00000000
Si       1.12640464      -1.11469213      -1.75302075       0.00000000
Si      -1.66030940      -1.52409241       0.73390202       0.00000000
Si       1.86233798       0.84201382       1.25222853       0.00000000
H       -0.75149029       0.55273600       2.49856367       0.00000000
H       -1.40253643       0.97528231       2.45599706       0.00000000
Si       2.46852146      -2.52941348      -0.38178660       0.00000000
H        1.36821340       3.21558087      -0.96642832       0.00000000
H        0.79706971       3.33620832       1.36373612       0.00000000
Si       2.55397880       2.70316262      -0.16761149       0.00000000
