10
Lattice="16.290000149 0.0 0.0 0.0 16.290000149 0.0 0.0 0.0 29.1751946751" Properties=species:S:1:pos:R:3:initial_magmoms:R:1 pbc="T T T"
H       -0.59966749      -0.09150093      -1.40035099       0.00000000
Si      -1.71585830       0.44219205       1.52507495       0.00000000
Si       0.47990340      -2.02846340       1.05900122       0.00000000
H        1.51430212      -0.84932803      -1.70388972       0.00000000
Si       1.89807824       1.49727907       0.32078127       0.00000000
Si       0.79511491      -0.92989837      -3.02864778       0.00000000
Si      -2.56176542       2.28768617       0.40057542       0.00000000
Si      -0.33184359       1.46381941       3.15771885       0.00000000
Si       2.07418943      -1.21901329       2.62118702       0.00000000
Si       0.92810647       2.95189464       1.83275655       0.00000000
