10
Lattice="16.290000149 0.0 0.0 0.0 16.290000149 0.0 0.0 0.0 29.1751946751" Properties=species:S:1:pos:R:3:initial_magmoms:R:1 pbc="T T T"
Si       1.07637805      -1.08880406      -0.01762182       0.00000000
Si      -1.81363088       1.88534272      -0.73156801       0.00000000
Si      -0.27826578       2.60487202       0.87808583       0.00000000
Si      -1.77575663      -0.54578179       2.36669179       0.00000000
Si      -0.19836333       1.13829960       2.81050485       0.00000000
H        1.26319177       2.23512160      -1.76658721       0.00000000
Si      -1.19277010       0.81435666      -2.77879142       0.00000000
Si       2.96599037      -0.22572565       1.11335460       0.00000000
Si      -3.03114549       0.56539658       0.76649071       0.00000000
Si       1.36901161      -1.81128186      -2.22580478       0.00000000
