10
Lattice="16.290000149 0.0 0.0 0.0 16.290000149 0.0 0.0 0.0 29.1751946751" Properties=species:S:1:pos:R:3:initial_magmoms:R:1 pbc="T T T"
Si       1.43074908      -1.21324663       1.38407124       0.00000000
Si      -1.43550902       1.24440940       1.36884178       0.00000000
Si      -1.35859139      -1.41143077      -1.31224191       0.00000000
Si       1.36747872       1.42835608      -1.29943400       0.00000000
H       -1.18587943      -1.45213948       3.06161575       0.00000000
Si      -0.04791215      -2.41684958       2.77091411       0.00000000
Si       2.57411161      -2.64096740      -0.07918148       0.00000000
Si      -0.01447204       2.68320737       2.53532442       0.00000000
Si       2.56588516       0.02598255      -2.77494029       0.00000000
Si      -2.72649153       2.65859318       0.01012379       0.00000000
