10
Lattice="16.290000149 0.0 0.0 0.0 16.290000149 0.0 0.0 0.0 29.1751946751" Properties=species:S:1:pos:R:3:initial_magmoms:R:1 pbc="T T T"
Si       1.39171987       1.43674543      -1.17578952       0.00000000
Si       1.70165342      -1.59648517       0.01485017       0.00000000
Si      -0.95488723       1.26848602       1.75576322       0.00000000
Si      -1.59428602      -0.80945011      -1.56218580       0.00000000
Si      -2.07418943       1.21901329      -2.62118702       0.00000000
Si      -0.17611119       2.71629236      -2.30040575       0.00000000
Si       0.63221491      -3.35609841      -1.04911083       0.00000000
Si      -2.40603302       2.68283270       0.53653183       0.00000000
Si      -0.29939391      -2.31345695      -2.88186738       0.00000000
Si       2.35441001      -2.01989486       2.14638698       0.00000000
