10
Lattice="16.290000149 0.0 0.0 0.0 16.290000149 0.0 0.0 0.0 29.1751946751" Properties=species:S:1:pos:R:3:initial_magmoms:R:1 pbc="T T T"
H       -0.90583804      -0.07068231       1.21815190       0.00000000
Si      -0.88837516       1.42211701      -1.59048574       0.00000000
Si       0.34236693      -2.11983401      -0.93170984       0.00000000
Si       1.88082713       1.34710156       0.38309948       0.00000000
H        0.99517240       0.35717454       2.46498302       0.00000000
H       -2.16642341      -1.83861974       0.78837211       0.00000000
Si       0.27864045       2.87595229       1.46797910       0.00000000
Si      -0.32646789       0.38602413      -3.59943129       0.00000000
Si      -1.71947468      -2.81540073      -1.83360263       0.00000000
Si       1.56489886      -3.44497665       0.58347472       0.00000000
