10
Lattice="16.290000149 0.0 0.0 0.0 16.290000149 0.0 0.0 0.0 29.1751946751" Properties=species:S:1:pos:R:3:initial_magmoms:R:1 pbc="T T T"
Si      -0.82749943       1.24178671      -1.71782087       0.00000000
Si      -1.83062135      -1.02499939       0.94284893       0.00000000
Si       1.04099617       1.85212578       0.95213248       0.00000000
Si       1.74522917      -1.53880228      -0.45214404       0.00000000
H       -1.00843246       2.62954811      -1.10864281       0.00000000
Si      -0.42567399      -2.38951496       2.19678129       0.00000000
Si       1.50122125      -1.03884589      -2.75564090       0.00000000
Si       2.45601074       0.50647614       2.20654331       0.00000000
Si       1.07082316       1.25323369      -3.05521180       0.00000000
Si       0.99525385      -0.92960515       3.42238162       0.00000000
