10
Lattice="16.290000149 0.0 0.0 0.0 16.290000149 0.0 0.0 0.0 29.1751946751" Properties=species:S:1:pos:R:3:initial_magmoms:R:1 pbc="T T T"
Si      -1.17951004      -0.13817178       2.03812075       0.00000000
Si      -1.52446708       0.99945667      -1.50225995       0.00000000
Si       1.00079245      -1.76441879      -1.26226480       0.00000000
Si       1.52471143       1.84630862       0.44220843       0.00000000
H       -2.05438079      -2.80370451      -0.90504371       0.00000000
H        0.70884307      -2.96699547       1.93052263       0.00000000
Si       2.30216798      -0.46747413      -2.75755188       0.00000000
Si      -2.55497249       2.62266233      -0.18529166       0.00000000
Si       0.37540305       0.62788177       3.62043743       0.00000000
Si      -0.23149719       2.43823053      -2.77919987       0.00000000
