10
Lattice="16.290000149 0.0 0.0 0.0 16.290000149 0.0 0.0 0.0 29.1751946751" Properties=species:S:1:pos:R:3:initial_magmoms:R:1 pbc="T T T"
Si      -1.34786576      -1.35348724       1.35763851       0.00000000
Si      -1.36842374       1.35681040      -1.34062937       0.00000000
Si       1.33051652      -1.34974054      -1.39086906       0.00000000
Si       1.31421837       1.36647037       1.39434090       0.00000000
Si       0.03076705       2.69120576      -2.67454845       0.00000000
Si       2.68144949      -2.70844058      -0.03095488       0.00000000
Si      -2.69161158       0.01158219       2.70894600       0.00000000
Si       2.69008319       2.71464707       0.04396702       0.00000000
Si      -2.71865298      -2.70166394       0.00221731       0.00000000
Si       2.70326180       0.01739772       2.72458391       0.00000000
