10
Lattice="16.290000149 0.0 0.0 0.0 16.290000149 0.0 0.0 0.0 29.1751946751" Properties=species:S:1:pos:R:3:initial_magmoms:R:1 pbc="T T T"
Si       1.24053238      -1.38950443       1.37263456       0.00000000
Si      -1.36107838       1.34745994       1.33374402       0.00000000
Si      -1.29336085      -1.43666398      -1.31326304       0.00000000
Si       1.45714051       1.29845962      -1.30270162       0.00000000
Si       2.68043807      -0.05934447       2.58276328       0.00000000
Si      -2.64823274      -0.06986781      -2.65044974       0.00000000
Si       0.09420507       2.62467740      -2.68330100       0.00000000
Si       0.02603142       2.69985575       2.62646773       0.00000000
Si      -2.60151302      -2.78360102       0.10990296       0.00000000
Si       0.13185126      -2.79869533      -2.61199683       0.00000000
