10
Lattice="16.290000149 0.0 0.0 0.0 16.290000149 0.0 0.0 0.0 29.1751946751" Properties=species:S:1:pos:R:3:initial_magmoms:R:1 pbc="T T T"
Si      -1.29296989      -1.43877386       1.27693992       0.00000000
Si       1.30197826      -1.41381758      -1.33884968       0.00000000
Si      -1.43563771       1.62630369      -0.92707099       0.00000000
Si       1.18925146       1.14681080       1.69487458       0.00000000
Si      -0.80557309       2.03371660       2.66842166       0.00000000
Si      -2.32347530       0.18443180       2.59390821       0.00000000
Si      -0.08744472       2.64613915      -2.56026921       0.00000000
Si       2.62803559       2.56964131       0.34590111       0.00000000
Si       0.23149719      -2.43823053       2.77919987       0.00000000
Si       1.75620863      -0.59192192       3.22140830       0.00000000
