10
Lattice="16.290000149 0.0 0.0 0.0 16.290000149 0.0 0.0 0.0 29.1751946751" Properties=species:S:1:pos:R:3:initial_magmoms:R:1 pbc="T T T"
Si      -1.41954319       1.37241622      -1.25333719       0.00000000
Si      -1.30227148      -1.23606892       1.50056779       0.00000000
Si       1.18322416      -1.45145530      -1.41213777       0.00000000
Si       1.85494232       0.93164140       1.10687771       0.00000000
Si       3.45667287      -0.84530440       1.01695976       0.00000000
Si      -0.04341285       2.69280218      -2.61683991       0.00000000
Si       2.57841380      -2.73447201      -0.05236947       0.00000000
Si       2.56718999      -0.11593593      -2.75288384       0.00000000
Si       0.14450859      -2.58892085       2.78305100       0.00000000
Si      -2.77602780      -0.00946449      -2.60394448       0.00000000
