10
Lattice="16.290000149 0.0 0.0 0.0 16.290000149 0.0 0.0 0.0 29.1751946751" Properties=species:S:1:pos:R:3:initial_magmoms:R:1 pbc="T T T"
Si      -1.32926874       1.40468671      -1.31600551       0.00000000
Si       1.33609620       1.37345878       1.34485977       0.00000000
Si       1.35335220      -1.32312268      -1.40207233       0.00000000
Si      -1.38419862      -1.33511212       1.36484478       0.00000000
Si      -2.71825189       0.05942592      -2.59244653       0.00000000
Si       2.64627322      -2.68289786       0.02374861       0.00000000
Si       2.67932563       0.01441665       2.70599931       0.00000000
Si       2.66883487       2.72821664      -0.03789858       0.00000000
Si      -0.05262142       2.73517247       2.66535826       0.00000000
Si      -0.01327440      -2.71375112      -2.71304220       0.00000000
