10
Lattice="16.290000149 0.0 0.0 0.0 16.290000149 0.0 0.0 0.0 29.1751946751" Properties=species:S:1:pos:R:3:initial_magmoms:R:1 pbc="T T T"
H       -0.61348141       1.30496422      -0.44270440       0.00000000
Si      -0.84708001      -1.66224302      -1.39556626       0.00000000
Si       2.30799980       0.08720526      -0.35973015       0.00000000
Si      -0.75613294      -0.58237891       2.15549256       0.00000000
H        1.40214547       1.65251137      -1.85478383       0.00000000
Si       2.36307629      -1.98033785       0.92841304       0.00000000
Si      -2.22543719      -0.21059549      -2.55422994       0.00000000
Si      -2.12543940       2.77663541       0.18698382       0.00000000
Si       1.31507542      -1.30725622       2.99836393       0.00000000
Si       0.49658436       2.55251759      -2.66311177       0.00000000
