10
Lattice="16.290000149 0.0 0.0 0.0 16.290000149 0.0 0.0 0.0 29.1751946751" Properties=species:S:1:pos:R:3:initial_magmoms:R:1 pbc="T T T"
Si       1.36002931       1.35021295      -1.35375821       0.00000000
Si       1.37035717      -1.34258923       1.35682160       0.00000000
Si      -1.33860242       1.36288657       1.37283879       0.00000000
Si      -1.34821580      -1.37821546      -1.35142419       0.00000000
Si      -2.68790541      -0.04779486       2.67793277       0.00000000
Si       2.66925662      -2.70023042      -0.06103451       0.00000000
Si      -0.02901412       2.69928560      -2.68400121       0.00000000
Si      -2.69109825      -0.02067201      -2.72070360       0.00000000
Si       2.67833015      -0.01267362      -2.74445221       0.00000000
Si       2.72684177       0.03929148       2.70742889       0.00000000
