10
Lattice="16.290000149 0.0 0.0 0.0 16.290000149 0.0 0.0 0.0 29.1751946751" Properties=species:S:1:pos:R:3:initial_magmoms:R:1 pbc="T T T"
Si       1.34789977       1.36246303       1.34958616       0.00000000
Si      -1.34322943       1.35904213      -1.36113953       0.00000000
Si       1.35956341      -1.35413884      -1.35434171       0.00000000
Si      -1.36808145      -1.36469476       1.34363442       0.00000000
Si      -0.03305241      -2.69731451      -2.68225070       0.00000000
Si       2.69086367      -0.02057427       2.69327892       0.00000000
Si      -2.67932563      -0.01441665      -2.70599931       0.00000000
Si      -0.04069242       2.71314839       2.68318430       0.00000000
Si       2.69664662       2.70980894      -0.02865004       0.00000000
Si       2.68900661      -2.72430704       0.01788439       0.00000000
