10
Lattice="16.290000149 0.0 0.0 0.0 16.290000149 0.0 0.0 0.0 29.1751946751" Properties=species:S:1:pos:R:3:initial_magmoms:R:1 pbc="T T T"
Si      -1.36868581       1.34897491      -1.33949154       0.00000000
Si      -1.37624437      -1.34234488       1.34086277       0.00000000
Si       1.35397594      -1.35293338      -1.36688705       0.00000000
Si       1.35684298       1.36352188       1.35717171       0.00000000
Si       0.00979029       2.69228090      -2.67600721       0.00000000
Si      -0.01417230      -2.73655713       2.64575253       0.00000000
Si       2.71681364      -2.69247638      -0.00291752       0.00000000
Si      -2.72852615       0.02766042       2.69155758       0.00000000
Si       2.70897815       0.01801674      -2.71291383       0.00000000
Si      -2.73056240      -2.69606018      -0.01969326       0.00000000
