10
Lattice="16.290000149 0.0 0.0 0.0 16.290000149 0.0 0.0 0.0 29.1751946751" Properties=species:S:1:pos:R:3:initial_magmoms:R:1 pbc="T T T"
Si       1.30559464      -1.42529356      -1.30189930       0.00000000
Si       1.40805874       1.30153843       1.34551622       0.00000000
Si      -1.30715848      -1.47758446       1.27501728       0.00000000
Si      -1.27816228       1.49635054      -1.34000210       0.00000000
Si       2.56554470       0.06278166      -2.62686159       0.00000000
Si      -2.69309540      -0.11210778       2.63154713       0.00000000
Si      -2.64590327       0.16058682      -2.67867674       0.00000000
Si       0.03661992       2.65875608       2.68118289       0.00000000
Si      -2.69773805       2.66639609       0.06120226       0.00000000
Si      -0.07842006      -2.44692092      -2.93454319       0.00000000
