10
Lattice="16.290000149 0.0 0.0 0.0 16.290000149 0.0 0.0 0.0 29.1751946751" Properties=species:S:1:pos:R:3:initial_magmoms:R:1 pbc="T T T"
Si      -1.36855549      -1.34876314       1.35042640       0.00000000
Si       1.30411225       1.29523420       1.47582139       0.00000000
Si      -1.37046142       1.41224527      -1.30367023       0.00000000
Si       1.36420606      -1.34679205      -1.39067066       0.00000000
Si       2.65921220       2.63637362       0.16085744       0.00000000
Si       2.71204067      -2.70912476      -0.01439796       0.00000000
Si      -0.01687644      -2.66758526       2.75818789       0.00000000
Si      -2.71194293      -2.71783991      -0.01307049       0.00000000
Si      -2.77852017       0.11070684      -2.64918645       0.00000000
Si      -2.73155609       0.02454903       2.70024596       0.00000000
