10
Lattice="16.290000149 0.0 0.0 0.0 16.290000149 0.0 0.0 0.0 29.1751946751" Properties=species:S:1:pos:R:3:initial_magmoms:R:1 pbc="T T T"
H       -1.12985812       0.06089202       1.00596071       0.00000000
Si       0.22385718      -2.13478823      -0.91146226       0.00000000
Si       2.06184161       0.69556672       0.90189279       0.00000000
Si      -0.22840209       1.51428583      -1.83576160       0.00000000
H       -0.44694873       0.97678099       2.62197475       0.00000000
H       -2.05262147       1.82462663       1.45464603       0.00000000
Si       2.34880625      -1.54899982      -1.91328009       0.00000000
H        2.43294410      -2.37386027       0.66000125       0.00000000
Si       3.31999977       0.44761662      -1.03644879       0.00000000
Si       1.71947468       2.81540073       1.83360263       0.00000000
