10
Lattice="16.290000149 0.0 0.0 0.0 16.290000149 0.0 0.0 0.0 29.1751946751" Properties=species:S:1:pos:R:3:initial_magmoms:R:1 pbc="T T T"
Si      -1.40805874      -1.30153843      -1.34551622       0.00000000
Si      -1.37143882       1.35721765       1.33566667       0.00000000
Si       1.32196609       1.40312287      -1.34253801       0.00000000
Si       1.37046142      -1.41224527       1.30367023       0.00000000
Si       2.62472627       2.58864392       0.21059531       0.00000000
Si       2.66105297       0.04629618      -2.68659780       0.00000000
Si      -0.10246410      -2.72683199      -2.64741552       0.00000000
Si      -2.68622102       0.19481211      -2.68551832       0.00000000
Si      -2.73707841      -0.04043178       2.64455635       0.00000000
Si       0.00190593      -2.76100842       2.65409663       0.00000000
