10
Lattice="16.290000149 0.0 0.0 0.0 16.290000149 0.0 0.0 0.0 29.1751946751" Properties=species:S:1:pos:R:3:initial_magmoms:R:1 pbc="T T T"
Si      -0.11709252       2.30520932       0.23576475       0.00000000
Si       1.60132330       0.07366338      -1.79083180       0.00000000
Si       0.28585692      -0.88602940       2.24100505       0.00000000
Si      -2.12703419      -0.97005322      -0.67949028       0.00000000
H        1.09533961      -2.74968687       0.05867132       0.00000000
H        2.53402355      -1.83901070       0.60707745       0.00000000
Si      -1.86466745       1.98257284       1.72760915       0.00000000
Si      -1.90847126      -0.16275339       2.70815827       0.00000000
Si       3.18050850      -1.01219545      -0.46931218       0.00000000
Si      -1.04417272      -2.39019914      -2.17749065       0.00000000
