10
Lattice="16.290000149 0.0 0.0 0.0 16.290000149 0.0 0.0 0.0 29.1751946751" Properties=species:S:1:pos:R:3:initial_magmoms:R:1 pbc="T T T"
Si      -1.33162606      -1.35508692      -1.38310845       0.00000000
Si       1.33206589      -1.36637589       1.37199270       0.00000000
Si       1.35153244       1.35130112      -1.37339311       0.00000000
Si      -1.37103157       1.33988183       1.36548664       0.00000000
Si       0.00211770       2.72378251       2.67516113       0.00000000
Si      -2.69491988       2.70459289      -0.02695788       0.00000000
Si       2.70253057       0.00581390       2.70217736       0.00000000
Si       2.70160367      -2.70629356      -0.00843163       0.00000000
Si      -2.69123834      -2.71842961      -0.04046599       0.00000000
Si      -2.69213429      -0.00163877      -2.73464935       0.00000000
