10
Lattice="16.290000149 0.0 0.0 0.0 16.290000149 0.0 0.0 0.0 29.1751946751" Properties=species:S:1:pos:R:3:initial_magmoms:R:1 pbc="T T T"
Si       1.34786576       1.35348724      -1.35763851       0.00000000
Si      -1.34374582       1.36506943       1.35130749       0.00000000
Si       1.34288245      -1.35754345       1.36927941       0.00000000
Si      -1.37078722      -1.34817670      -1.35542119       0.00000000
Si      -2.68179014      -0.08223192       2.60721210       0.00000000
Si       2.67051584      -2.70648578      -0.02599510       0.00000000
Si       2.66208413       2.71995761       0.03670239       0.00000000
Si      -0.02055798       2.71029764      -2.69826788       0.00000000
Si       2.69109825       0.02067201       2.72070360       0.00000000
Si      -0.02700882      -2.67846698      -2.74281840       0.00000000
