10
Lattice="16.290000149 0.0 0.0 0.0 16.290000149 0.0 0.0 0.0 29.1751946751" Properties=species:S:1:pos:R:3:initial_magmoms:R:1 pbc="T T T"
Si      -1.28876056      -1.40985064      -1.31866045       0.00000000
Si       1.41647090      -1.22274370       1.37881970       0.00000000
Si      -1.34194741       1.30163617       1.42231992       0.00000000
Si       1.46467301       1.38184813      -1.21596376       0.00000000
Si       2.07949019       0.65410867       2.67807864       0.00000000
Si       0.42747241       2.30721788       2.57902886       0.00000000
Si      -2.61132938      -0.03596832      -2.65380488       0.00000000
Si       0.11745253       2.73461862      -2.60201891       0.00000000
Si      -2.60859266      -2.73668744       0.12198149       0.00000000
Si       0.10342684      -2.71207325       2.64718211       0.00000000
