10
Lattice="16.290000149 0.0 0.0 0.0 16.290000149 0.0 0.0 0.0 29.1751946751" Properties=species:S:1:pos:R:3:initial_magmoms:R:1 pbc="T T T"
Si      -1.43441596       1.32177061       1.28224981       0.00000000
Si      -1.37697742      -1.34022718      -1.33243114       0.00000000
Si       1.34913781       1.35790183      -1.35308718       0.00000000
Si       1.35676153      -1.33463971       1.37730259       0.00000000
Si      -0.00830790       2.71132391       2.46171540       0.00000000
Si       0.00154755      -2.70604595      -2.64458552       0.00000000
Si      -2.72753246       0.03631041      -2.67443175       0.00000000
Si       2.72808632       0.01081656      -2.67451927       0.00000000
Si      -0.01293426       2.75211408      -2.65797694       0.00000000
Si       0.01541034      -2.66738978       2.75043313       0.00000000
