10
Lattice="16.290000149 0.0 0.0 0.0 16.290000149 0.0 0.0 0.0 29.1751946751" Properties=species:S:1:pos:R:3:initial_magmoms:R:1 pbc="T T T"
Si      -1.34787371       1.33576372      -1.37590218       0.00000000
Si       1.31281111       1.46751724       1.27965321       0.00000000
Si      -1.40921045      -1.29559584       1.38853504       0.00000000
Si       1.41887530      -1.35496800      -1.33634062       0.00000000
H        2.21837222       0.56751103       2.08798116       0.00000000
H        0.20274534       0.21996387       3.50006058       0.00000000
Si      -2.64075599      -2.65594296      -0.05706668       0.00000000
Si      -0.03085326      -2.74724337       2.54719872       0.00000000
Si      -2.61989189       2.69705387       0.04659279       0.00000000
Si       0.07516206      -2.70115895      -2.72502153       0.00000000
