10
Lattice="16.290000149 0.0 0.0 0.0 16.290000149 0.0 0.0 0.0 29.1751946751" Properties=species:S:1:pos:R:3:initial_magmoms:R:1 pbc="T T T"
Si       0.97896385      -1.85929175       0.89591188       0.00000000
Si      -1.48646251      -1.01388961      -1.46958373       0.00000000
Si      -1.60997329       0.78838714       1.52326609       0.00000000
Si       1.66030940       1.52409241      -0.73390202       0.00000000
H        0.90881911       2.07682841       1.76466165       0.00000000
H        0.25777296       2.49937472       1.72209504       0.00000000
H       -0.89078608       0.86895748       2.84802415       0.00000000
Si      -1.95131396       2.73844676       0.15063153       0.00000000
Si       0.17363511       3.32423517      -0.85118630       0.00000000
Si      -0.05409909      -2.23958180      -2.75545126       0.00000000
