10
Lattice="16.290000149 0.0 0.0 0.0 16.290000149 0.0 0.0 0.0 29.1751946751" Properties=species:S:1:pos:R:3:initial_magmoms:R:1 pbc="T T T"
Si      -1.42952896       1.44389674       1.12131943       0.00000000
Si      -1.35948196      -1.30820104      -1.38964370       0.00000000
Si       1.34969167       1.39103569      -1.34512235       0.00000000
Si       1.33156090      -1.31530348       1.44268420       0.00000000
H       -0.58503907       2.37827486       1.93093108       0.00000000
Si      -2.70083315      -2.64095111      -0.01651316       0.00000000
Si       0.01389537      -2.66712914      -2.71066734       0.00000000
Si       2.71723718      -2.66541869       0.08802156       0.00000000
Si       2.73313623       0.04743648      -2.68105451       0.00000000
Si      -2.72455139       2.73776259      -0.30523089       0.00000000
