10
Lattice="16.290000149 0.0 0.0 0.0 16.290000149 0.0 0.0 0.0 29.1751946751" Properties=species:S:1:pos:R:3:initial_magmoms:R:1 pbc="T T T"
Si      -1.23225706       1.85170061       0.66490269       0.00000000
Si      -1.53536509      -0.71952931      -1.60965384       0.00000000
Si       1.61497432       0.68668867      -1.56475322       0.00000000
Si       0.07990245      -1.46657242       1.93241902       0.00000000
H        0.27826578      -2.60487202      -0.87808583       0.00000000
H        0.06442695       2.39994056       1.58791832       0.00000000
H        1.54145755      -0.36975042      -2.64467305       0.00000000
Si      -2.75287971      -2.03947544      -0.11159512       0.00000000
H       -0.27342765       3.10567224      -2.01087112       0.00000000
Si       2.32393142      -1.97190452       2.22253716       0.00000000
