10
Lattice="16.290000149 0.0 0.0 0.0 16.290000149 0.0 0.0 0.0 29.1751946751" Properties=species:S:1:pos:R:3:initial_magmoms:R:1 pbc="T T T"
Si      -1.34371324      -1.32717889      -1.40738222       0.00000000
Si      -1.38567628       1.35011521       1.35466264       0.00000000
Si       1.35578413       1.34708527      -1.39349482       0.00000000
Si       1.39126001      -1.35584929       1.35075316       0.00000000
Si      -2.68402187      -2.67563252      -0.03480601       0.00000000
Si       2.66327819      -2.71713944      -0.07174180       0.00000000
Si      -2.71723718       2.66541869      -0.08802156       0.00000000
Si       0.02335986       2.71417466       2.67311886       0.00000000
Si       2.74985139       0.05558148       2.66299507       0.00000000
Si      -2.73720872      -0.03463254       2.70920858       0.00000000
