10
Lattice="16.290000149 0.0 0.0 0.0 16.290000149 0.0 0.0 0.0 29.1751946751" Properties=species:S:1:pos:R:3:initial_magmoms:R:1 pbc="T T T"
Si       1.72335170       0.94206700       1.27758673       0.00000000
Si      -0.86677462      -1.72419715       1.38686534       0.00000000
Si       0.74044567      -0.63900784      -2.17666587       0.00000000
Si      -1.70513948       1.67047436       0.12942612       0.00000000
H       -2.91620325      -0.94677481      -0.67390994       0.00000000
Si       0.46524240       2.34308846       2.64278745       0.00000000
Si      -2.36509625      -0.48837420       2.66629683       0.00000000
Si      -0.83694763      -2.32308923      -2.62047893       0.00000000
Si       2.98447464      -1.14433993      -1.88654774       0.00000000
Si      -2.35789607       2.09388404      -2.00211068       0.00000000
