10
Lattice="16.290000149 0.0 0.0 0.0 16.290000149 0.0 0.0 0.0 29.1751946751" Properties=species:S:1:pos:R:3:initial_magmoms:R:1 pbc="T T T"
Si       1.53536509       0.71952931       1.60965384       0.00000000
Si      -1.21751461      -1.31994613       1.49805872       0.00000000
Si       0.62086078      -1.07098606      -2.04722341       0.00000000
Si      -1.49214772       1.86755078      -0.35124017       0.00000000
H        1.81363088      -1.88534272       0.73156801       0.00000000
H        3.07682265       0.34977888      -1.03501921       0.00000000
Si      -1.87486499       1.22376997      -2.57541113       0.00000000
Si       0.30310803       2.57122991       2.27455653       0.00000000
Si       3.15033942       1.40621797       0.04490062       0.00000000
Si      -2.55251270       0.22623552       2.65266705       0.00000000
