10
Lattice="16.290000149 0.0 0.0 0.0 16.290000149 0.0 0.0 0.0 29.1751946751" Properties=species:S:1:pos:R:3:initial_magmoms:R:1 pbc="T T T"
Si      -1.41840990       1.16673868      -1.44790656       0.00000000
Si      -1.45714752      -1.18048744       1.42092242       0.00000000
Si       1.46212476      -1.28407555      -1.34162133       0.00000000
Si       1.21065929       1.47857815       1.41226031       0.00000000
H       -2.34421948       1.89824114      -0.48923884       0.00000000
Si       2.65026199       0.41436873      -2.52838072       0.00000000
Si      -0.07212284      -2.54262467       2.77912401       0.00000000
Si      -2.85315166      -2.50338206       0.05715421       0.00000000
Si       2.60306986       0.14167413       2.78184314       0.00000000
Si      -0.28022759       2.81072550      -2.65552622       0.00000000
