10
Lattice="16.290000149 0.0 0.0 0.0 16.290000149 0.0 0.0 0.0 29.1751946751" Properties=species:S:1:pos:R:3:initial_magmoms:R:1 pbc="T T T"
Si      -1.38588805      -1.27171144      -1.37504531       0.00000000
Si       1.19923723      -1.40449123       1.43742683       0.00000000
Si      -1.42361569       1.37764531       1.28164004       0.00000000
Si       1.87211198       0.79662988      -1.20079091       0.00000000
Si       2.52213185      -2.72561350       0.04182556       0.00000000
Si       2.62765847      -0.00092853       2.67940903       0.00000000
Si       2.68053581       2.65494422      -0.01922645       0.00000000
Si       3.50552658      -0.93913480      -1.11647051       0.00000000
Si      -2.70961835      -2.66297682       0.00505314       0.00000000
Si      -0.10186137       2.71658558       2.67459513       0.00000000
