10
Lattice="16.290000149 0.0 0.0 0.0 16.290000149 0.0 0.0 0.0 29.1751946751" Properties=species:S:1:pos:R:3:initial_magmoms:R:1 pbc="T T T"
Si       1.34571691       1.39371761      -1.31585671       0.00000000
Si      -1.33032286       1.35047359       1.37937403       0.00000000
Si      -1.33330393      -1.32628294      -1.40289215       0.00000000
Si       1.38083815      -1.36049194       1.33546536       0.00000000
Si       2.66286116      -0.09485667      -2.52796352       0.00000000
Si       0.01154961      -2.72051147       2.66039848       0.00000000
Si       2.70467759       2.67795874       0.09152259       0.00000000
Si      -2.72080469      -0.00913869       2.67950823       0.00000000
Si      -0.03388320       2.72058967      -2.67982916       0.00000000
Si      -2.69863400       2.71307020       0.06835748       0.00000000
