10
Lattice="16.290000149 0.0 0.0 0.0 16.290000149 0.0 0.0 0.0 29.1751946751" Properties=species:S:1:pos:R:3:initial_magmoms:R:1 pbc="T T T"
Si       0.52177196      -0.68012380       2.23000600       0.00000000
Si      -2.01007199       1.36576990       0.07731427       0.00000000
Si       1.16154217       2.05758992      -0.59502810       0.00000000
Si      -1.22367223      -1.58491927      -1.41251705       0.00000000
Si       2.19260144      -1.42358311      -1.04540558       0.00000000
H       -1.04283694       1.11058705      -2.39691729       0.00000000
H       -2.66598884      -1.29989314      -0.97191326       0.00000000
H       -1.56115216       2.65497680      -0.57661855       0.00000000
Si      -0.00864999       2.21713418      -2.61225941       0.00000000
H        3.38779875      -1.05847534      -0.15363658       0.00000000
