10
Lattice="16.290000149 0.0 0.0 0.0 16.290000149 0.0 0.0 0.0 29.1751946751" Properties=species:S:1:pos:R:3:initial_magmoms:R:1 pbc="T T T"
Si      -1.36928854      -1.36001953       1.32493312       0.00000000
Si       1.33187041      -1.44001972      -1.29453256       0.00000000
Si      -1.38083815       1.36049194      -1.33546536       0.00000000
Si       1.37683081       1.34737849       1.35469181       0.00000000
Si       2.68697036      -0.09888030      -2.60949651       0.00000000
Si       0.01495422      -2.69765660       2.67449010       0.00000000
Si      -2.71922456       0.00579924       2.67991668       0.00000000
Si      -0.03512124       2.75420956      -2.65132207       0.00000000
Si      -2.70379793      -2.71070489      -0.07010799       0.00000000
Si      -2.71116101       2.71096553       0.04390867       0.00000000
