10
Lattice="16.290000149 0.0 0.0 0.0 16.290000149 0.0 0.0 0.0 29.1751946751" Properties=species:S:1:pos:R:3:initial_magmoms:R:1 pbc="T T T"
Si       1.34185618       1.32864173      -1.35258537       0.00000000
Si      -1.36034533       1.39416011       1.28507980       0.00000000
Si       1.36831114      -1.36259661       1.31101655       0.00000000
Si      -1.29780802      -1.32956049      -1.42045562       0.00000000
Si      -2.68537720       0.00971047       2.64508150       0.00000000
Si      -0.02217069      -2.72220889       2.61115075       0.00000000
Si       0.03227049       2.73733579       2.61298879       0.00000000
Si      -2.56699940       0.07015614      -2.78495905       0.00000000
Si       2.72246627       0.01018614       2.64686119       0.00000000
Si      -2.65326635       2.75393530      -0.14074114       0.00000000
