10
Lattice="16.290000149 0.0 0.0 0.0 16.290000149 0.0 0.0 0.0 29.1751946751" Properties=species:S:1:pos:R:3:initial_magmoms:R:1 pbc="T T T"
Si       1.36842374      -1.35681040       1.34062937       0.00000000
Si       1.39919079       1.33439536      -1.33391908       0.00000000
Si      -1.35058762       1.36086661       1.36029345       0.00000000
Si      -1.35806473      -1.34798122      -1.36714962       0.00000000
Si       0.07951149       2.76874617      -2.60767890       0.00000000
Si       2.69894026      -2.70655094      -0.05023969       0.00000000
Si       0.02055798      -2.71029764       2.69826788       0.00000000
Si      -2.71019990      -0.00247608       2.70293591       0.00000000
Si       2.68264211       0.00965997       2.73497027       0.00000000
Si      -2.71109585       2.71431476       0.00875256       0.00000000
