10
Lattice="16.290000149 0.0 0.0 0.0 16.290000149 0.0 0.0 0.0 29.1751946751" Properties=species:S:1:pos:R:3:initial_magmoms:R:1 pbc="T T T"
Si      -1.31967930       1.43435080      -1.27375982       0.00000000
Si       1.31340048       1.38447571       1.36347355       0.00000000
Si      -1.39919079      -1.33439536       1.33391908       0.00000000
Si       1.28047839      -1.34602642      -1.45718427       0.00000000
Si      -2.64309520       0.09831390      -2.61423457       0.00000000
Si       2.64628413      -2.69361668      -0.08504569       0.00000000
Si      -0.03076705      -2.69120576       2.67454845       0.00000000
Si       2.65931613       0.02344131       2.71851546       0.00000000
Si       2.70096966       0.04520475      -2.70206357       0.00000000
Si       2.63843235       2.76892536       0.00347185       0.00000000
