10
Lattice="16.290000149 0.0 0.0 0.0 16.290000149 0.0 0.0 0.0 29.1751946751" Properties=species:S:1:pos:R:3:initial_magmoms:R:1 pbc="T T T"
Si       1.37728693       1.35586558      -1.33123496       0.00000000
Si       1.37005417      -1.34170957       1.35297048       0.00000000
Si      -1.31971807       1.36878355       1.38363361       0.00000000
Si      -1.36616086      -1.36197433      -1.35285378       0.00000000
Si      -0.01883124      -2.70127298       2.66632104       0.00000000
Si      -0.00394218       2.71597471      -2.65301715       0.00000000
Si       2.72989452      -0.02039508      -2.67807864       0.00000000
Si      -2.68343543       0.01884753       2.73342399       0.00000000
Si      -2.70917363       2.71729746       0.05041474       0.00000000
Si       2.72233595      -2.71171487       0.00227567       0.00000000
