10
Lattice="16.290000149 0.0 0.0 0.0 16.290000149 0.0 0.0 0.0 29.1751946751" Properties=species:S:1:pos:R:3:initial_magmoms:R:1 pbc="T T T"
Si       1.36034533      -1.39416011      -1.28507980       0.00000000
Si       1.39261582       1.34317567       1.32790899       0.00000000
Si      -1.32503187      -1.38444965       1.36000170       0.00000000
Si      -1.29292102       1.35977518      -1.42582094       0.00000000
Si      -2.64627322       2.68289786      -0.02374861       0.00000000
Si       2.70220151      -0.06551838      -2.63766517       0.00000000
Si       0.03305241       2.69731451       2.68225070       0.00000000
Si      -2.65954762      -0.03085326      -2.73679081       0.00000000
Si      -2.70505226      -0.03606606       2.70045602       0.00000000
Si      -2.63843235      -2.76892536      -0.00347185       0.00000000
