10
Lattice="16.290000149 0.0 0.0 0.0 16.290000149 0.0 0.0 0.0 29.1751946751" Properties=species:S:1:pos:R:3:initial_magmoms:R:1 pbc="T T T"
Si       0.11709252      -2.30520932      -0.23576475       0.00000000
Si      -1.74757493      -0.32263648       1.49184440       0.00000000
Si      -0.98207524       0.86089067      -1.98691828       0.00000000
Si       1.83541061       1.18591690       1.00473535       0.00000000
H       -0.41912541       2.66601002       1.50010098       0.00000000
Si      -2.50321916       2.17763582      -0.78945159       0.00000000
Si       1.71841583      -2.23154594      -2.02659655       0.00000000
Si      -1.06331347       3.50779578       0.42067713       0.00000000
Si       0.40294944      -3.19123872       2.00524031       0.00000000
Si      -3.66572244       0.73783601       0.71438382       0.00000000
