10
Lattice="16.290000149 0.0 0.0 0.0 16.290000149 0.0 0.0 0.0 29.1751946751" Properties=species:S:1:pos:R:3:initial_magmoms:R:1 pbc="T T T"
Si      -1.29150379      -0.04937499      -0.80727764       0.00000000
Si       2.31648689      -0.19634337      -0.92018564       0.00000000
Si       2.18463563       0.23048721       1.43749102       0.00000000
Si       1.45371961       1.88017553      -1.71249640       0.00000000
H        1.30088683       2.67649589      -0.43695689       0.00000000
Si      -0.73801846      -2.56607331       1.45555046       0.00000000
Si       0.68115007      -1.13114340       2.73957996       0.00000000
Si      -2.63775339      -1.47162069       0.53311833       0.00000000
Si      -0.67603501      -1.55374021      -2.57684072       0.00000000
Si      -2.06937248       2.21623823      -0.60742755       0.00000000
