10
Lattice="16.28999089631971 0.0 0.0 0.0 16.28999089631971 0.0 0.0 0.0 34.397273925272025" Properties=species:S:1:pos:R:3:initial_magmoms:R:1 pbc="T T T"
Si      -1.33346097      -1.35548601       1.36422760       0.00000000
Si       1.29275974      -1.33879039      -1.41916008       0.00000000
Si       1.38428673       1.35571896       1.35889602       0.00000000
Si      -1.33916247       1.34504901      -1.48419160       0.00000000
Si       2.34557755       0.55087893      -2.38984722       0.00000000
Si       0.53273676       2.11493070      -2.71062851       0.00000000
Si      -2.69191665      -2.71103999      -0.00913936       0.00000000
Si      -2.69105328      -0.00174303       2.71906819       0.00000000
Si      -2.69325243       2.72349252      -0.02998756       0.00000000
Si       0.02482096       2.71412577       2.71930897       0.00000000
