10
Lattice="16.28999089631971 0.0 0.0 0.0 16.28999089631971 0.0 0.0 0.0 34.397273925272025" Properties=species:S:1:pos:R:3:initial_magmoms:R:1 pbc="T T T"
Si       0.38639880       2.25238150       0.48885433       0.00000000
Si      -1.63718410      -0.58709160       1.68044536       0.00000000
Si       2.14896051      -1.04330934       0.40750473       0.00000000
Si      -1.15465149      -0.40741290      -2.09159620       0.00000000
Si      -1.83651342      -2.85840630       1.25670511       0.00000000
Si       1.69487676      -3.32860086      -0.14587892       0.00000000
Si      -0.29370870       2.61636038       2.68157858       0.00000000
Si      -0.78672555       3.51685529      -1.07027178       0.00000000
Si      -3.33147509       0.52784487      -2.06136098       0.00000000
Si       2.57963553       3.06892916       0.36612479       0.00000000
