10
Lattice="16.28999089631971 0.0 0.0 0.0 16.28999089631971 0.0 0.0 0.0 34.397273925272025" Properties=species:S:1:pos:R:3:initial_magmoms:R:1 pbc="T T T"
Si       1.22445414       0.85655915      -1.81473239       0.00000000
Si       1.34706897       0.05903496       1.95466058       0.00000000
Si      -0.45589194      -2.12826474      -1.05506817       0.00000000
Si      -2.00441934       1.36306412       0.14491580       0.00000000
Si      -2.79068877      -1.83730905      -1.02737835       0.00000000
Si      -3.38817339       0.43309897      -1.48685739       0.00000000
Si       0.13411557       1.22668424       3.62850166       0.00000000
Si       0.31035708      -0.12597383      -3.84128332       0.00000000
Si      -1.44275643       3.52551275      -0.65929292       0.00000000
Si       2.97382095       1.75501781       1.79622665       0.00000000
