10
Lattice="16.28999089631971 0.0 0.0 0.0 16.28999089631971 0.0 0.0 0.0 34.397273925272025" Properties=species:S:1:pos:R:3:initial_magmoms:R:1 pbc="T T T"
Si       1.72276524      -0.92501136       1.35140085       0.00000000
Si      -1.82931813      -0.26795421       1.51179543       0.00000000
Si      -0.24669576       2.33691453      -0.45614250       0.00000000
Si       0.04324995      -1.26737177      -2.12764457       0.00000000
Si       0.35626230       2.16963252      -2.73785255       0.00000000
Si      -0.97968060       0.31540698      -3.49442101       0.00000000
Si       3.63110616      -0.71801433       0.02992565       0.00000000
Si      -1.41491682      -3.03872750      -1.65334029       0.00000000
Si       1.25082765      -3.23836145       1.42931072       0.00000000
Si      -1.27200465      -2.47104883       2.53979293       0.00000000
