10
Lattice="16.28999089631971 0.0 0.0 0.0 16.28999089631971 0.0 0.0 0.0 34.397273925272025" Properties=species:S:1:pos:R:3:initial_magmoms:R:1 pbc="T T T"
Si       0.02187747      -0.63994110       2.27878627       0.00000000
Si      -0.55731348       2.20309462      -1.02799750       0.00000000
Si       0.40369878      -1.52769723      -1.96336310       0.00000000
Si       2.52283230      -0.76731261      -1.11048221       0.00000000
Si       2.99476989       1.54603747      -1.18839208       0.00000000
Si      -2.52011187       1.61802298      -2.25536172       0.00000000
Si       1.27200465       2.47104883      -2.53979293       0.00000000
Si       0.91351062       1.09533064       3.67967593       0.00000000
Si       2.03411601      -2.59418724       2.46970432       0.00000000
Si       2.24969787       2.52799867       2.35631777       0.00000000
