10
Lattice="16.28999089631971 0.0 0.0 0.0 16.28999089631971 0.0 0.0 0.0 34.397273925272025" Properties=species:S:1:pos:R:3:initial_magmoms:R:1 pbc="T T T"
Si      -1.33618725      -1.43266803       1.32335816       0.00000000
Si       1.78720848      -0.79667874      -1.41001384       0.00000000
Si       1.36694277       1.40444235       1.43467812       0.00000000
Si       2.60006319      -2.58709032       0.04757146       0.00000000
Si       2.61643464       2.62744668      -0.21573982       0.00000000
Si       0.74507202      -0.98196120      -3.54470985       0.00000000
Si      -2.22782040      -3.16793978      -0.07753150       0.00000000
Si      -0.00504990      -2.67671483       2.82629284       0.00000000
Si      -2.71094922       0.02000412       2.80554440       0.00000000
Si       2.71593396       0.03161889       2.81573975       0.00000000
