10
Lattice="16.28999089631971 0.0 0.0 0.0 16.28999089631971 0.0 0.0 0.0 34.397273925272025" Properties=species:S:1:pos:R:3:initial_magmoms:R:1 pbc="T T T"
Si      -1.35620766       1.35713619       1.35659484       0.00000000
Si      -1.35751086      -1.35728280      -1.35656045       0.00000000
Si       1.35700587       1.35790182      -1.35807393       0.00000000
Si       1.35827649      -1.35791811       1.35724839       0.00000000
Si      -0.00006516       2.71544526       2.71150422       0.00000000
Si      -2.71300991       0.00130320       2.71497835       0.00000000
Si       0.00006516      -2.71441085       2.71408402       0.00000000
Si      -2.71436523       2.71472850      -0.00041277       0.00000000
Si       2.71518462       0.00027693       2.71404962       0.00000000
Si      -2.71204228      -0.00149868      -2.71738616       0.00000000
