10
Lattice="16.28999089631971 0.0 0.0 0.0 16.28999089631971 0.0 0.0 0.0 34.397273925272025" Properties=species:S:1:pos:R:3:initial_magmoms:R:1 pbc="T T T"
Si      -0.19790721      -1.10413620      -2.00422708       0.00000000
Si      -2.08518516      -0.57063870       0.79192888       0.00000000
Si       1.14512184      -1.13091696       1.70686248       0.00000000
Si       0.68652576       2.26344663      -0.10532451       0.00000000
Si      -2.02339719       0.67106655       2.73627027       0.00000000
Si       3.29478282      -0.71397441       0.88063950       0.00000000
Si      -0.75957012      -3.26658483      -1.20001837       0.00000000
Si      -0.03002247      -0.21036906       3.57019825       0.00000000
Si       3.35476260       0.20054619      -1.31659079       0.00000000
Si      -1.98739629      -2.95503858       0.84717093       0.00000000
