10
Lattice="16.28999089631971 0.0 0.0 0.0 16.28999089631971 0.0 0.0 0.0 34.397273925272025" Properties=species:S:1:pos:R:3:initial_magmoms:R:1 pbc="T T T"
Si      -2.14966098      -0.41694255       0.82622298       0.00000000
Si       1.39962051       1.29588579       1.39247122       0.00000000
Si       0.05997978       0.91452060      -2.19723029       0.00000000
Si       0.92388735      -2.16065673      -0.42934701       0.00000000
Si      -3.29478282       0.71397441      -0.88063950       0.00000000
Si       2.66299146      -0.54801189       2.21927896       0.00000000
Si       2.35040265       0.55366452      -2.63146172       0.00000000
Si      -1.91581803      -2.68899030       1.40292800       0.00000000
Si       2.31945165      -1.84898016      -2.35817523       0.00000000
Si       2.15115966      -2.74308939       1.49194819       0.00000000
