10
Lattice="16.28999089631971 0.0 0.0 0.0 16.28999089631971 0.0 0.0 0.0 34.397273925272025" Properties=species:S:1:pos:R:3:initial_magmoms:R:1 pbc="T T T"
Si      -2.24376831       0.52540137      -0.33740305       0.00000000
Si      -0.21370851      -2.06946531       1.09128852       0.00000000
Si       1.21678155      -0.62320653      -1.93643002       0.00000000
Si       1.46549727       1.24859592       1.39749323       0.00000000
Si       2.06868339      -2.52079605       1.19066230       0.00000000
Si       2.48015250      -2.46710421      -1.10962228       0.00000000
Si       3.15450963      -0.36911511       1.91407177       0.00000000
Si      -3.50764425      -1.41548697      -0.63934249       0.00000000
Si       2.06426880       3.22551774       0.29402806       0.00000000
Si      -0.18283896      -1.91909232      -3.32890124       0.00000000
