10
Lattice="16.28999089631971 0.0 0.0 0.0 16.28999089631971 0.0 0.0 0.0 34.397273925272025" Properties=species:S:1:pos:R:3:initial_magmoms:R:1 pbc="T T T"
Si      -0.08912259      -0.90723897      -2.14893649       0.00000000
Si       0.45820512      -1.44016632       1.82852571       0.00000000
Si      -2.42012385      -0.16566930       0.39567206       0.00000000
Si       1.55716110       1.94144220       0.14938744       0.00000000
Si      -0.28144233       3.31881057      -0.27204819       0.00000000
Si      -2.29268718       0.84295863       2.51722831       0.00000000
Si      -0.51093585      -0.25172937       3.57948552       0.00000000
Si      -1.71831807       2.90872611       1.61017169       0.00000000
Si      -0.80567082      -3.38105466       1.52658627       0.00000000
Si      -2.79904554      -2.49961905       0.69265829       0.00000000
