10
Lattice="16.28999089631971 0.0 0.0 0.0 16.28999089631971 0.0 0.0 0.0 34.397273925272025" Properties=species:S:1:pos:R:3:initial_magmoms:R:1 pbc="T T T"
Si       1.25532369       1.88934678       0.50663773       0.00000000
Si       0.68010750      -0.36397887      -2.19272425       0.00000000
Si      -2.34923629       0.16436610       0.28443122       0.00000000
Si       0.76813866      -1.40280032       1.77617303       0.00000000
Si       0.47309418       2.11302477       2.67834523       0.00000000
Si       3.42234981       1.13696055      -0.05476049       0.00000000
Si      -0.42852474      -3.36930047       1.22990961       0.00000000
Si      -1.34347540      -3.20345198      -1.00113322       0.00000000
Si       2.87334423       0.45256878      -2.31545379       0.00000000
Si       0.29370870      -2.61636038      -2.68157858       0.00000000
