10
Lattice="16.28999089631971 0.0 0.0 0.0 16.28999089631971 0.0 0.0 0.0 34.397273925272025" Properties=species:S:1:pos:R:3:initial_magmoms:R:1 pbc="T T T"
Si      -1.63012401      -1.59746256      -0.53484351       0.00000000
Si       1.92305079      -0.74670102       1.13339081       0.00000000
Si      -1.33781625       1.60945200       1.14735611       0.00000000
Si       1.40682069       0.86701896      -1.82611790       0.00000000
Si       2.37371364       1.47597174       1.92397819       0.00000000
Si       0.32790141       2.36410254       2.64116176       0.00000000
Si      -2.18325096       2.86324443      -0.64522442       0.00000000
Si      -0.66098304      -2.78589951      -2.28580332       0.00000000
Si       3.04828254      -2.06270496      -0.55090705       0.00000000
Si      -3.41187534      -0.50277456      -1.59710072       0.00000000
