10
Lattice="16.28999089631971 0.0 0.0 0.0 16.28999089631971 0.0 0.0 0.0 34.397273925272025" Properties=species:S:1:pos:R:3:initial_magmoms:R:1 pbc="T T T"
Si      -1.30280904       1.33073010       1.44864200       0.00000000
Si       1.22047938       1.59889608      -1.25803839       0.00000000
Si      -1.56799395      -1.18599345      -1.40121299       0.00000000
Si       1.42022736      -1.38507354       1.43414698       0.00000000
Si      -2.58115050       2.70213633      -0.03149072       0.00000000
Si      -2.64585438      -0.02857266       2.81546316       0.00000000
Si      -2.68004709      -2.81077434      -0.03538450       0.00000000
Si       2.77794999       2.71870326       0.06042916       0.00000000
Si       0.06475275       2.69000028       2.81553196       0.00000000
Si      -0.79175916       3.55314222      -1.44895643       0.00000000
