10
Lattice="16.28999089631971 0.0 0.0 0.0 16.28999089631971 0.0 0.0 0.0 34.397273925272025" Properties=species:S:1:pos:R:3:initial_magmoms:R:1 pbc="T T T"
Si       1.30422627       1.79849745       0.91335132       0.00000000
Si       1.29525048      -1.36627488      -1.53157387       0.00000000
Si      -1.40968773       1.34579835      -1.52290576       0.00000000
Si      -0.56254257      -1.03151538       2.28439303       0.00000000
Si       0.15745914       1.18934919       3.00281490       0.00000000
Si       2.59142949       0.88576875       2.70476235       0.00000000
Si       2.61304632      -2.86373313      -0.20751887       0.00000000
Si      -2.72655504       2.76946536      -0.04024483       0.00000000
Si       2.65702932      -0.00755856      -2.91740642       0.00000000
Si      -0.05401764       2.70417802      -2.91788798       0.00000000
