10
Lattice="16.28999089631971 0.0 0.0 0.0 16.28999089631971 0.0 0.0 0.0 34.397273925272025" Properties=species:S:1:pos:R:3:initial_magmoms:R:1 pbc="T T T"
Si      -0.45408375      -2.28529152      -0.55338365       0.00000000
Si       2.10391866       0.68774751      -0.98001328       0.00000000
Si      -2.14896051       1.04330934      -0.40750473       0.00000000
Si       0.54706707      -0.15731253       2.36023906       0.00000000
Si      -1.89095949      -2.69537598       1.32883623       0.00000000
Si      -1.23670422      -1.39512447       3.18776914       0.00000000
Si      -1.76256171       3.29569084       0.08134960       0.00000000
Si       1.64362842       2.94458922      -1.71522102       0.00000000
Si       2.72145627      -1.06065819       2.44647308       0.00000000
Si       3.70325457       0.45015786       0.89560232       0.00000000
