10
Lattice="16.28999089631971 0.0 0.0 0.0 16.28999089631971 0.0 0.0 0.0 34.397273925272025" Properties=species:S:1:pos:R:3:initial_magmoms:R:1 pbc="T T T"
Si      -1.78377129      -1.23781194       0.82753008       0.00000000
Si      -0.00262269       1.59980832       1.70015501       0.00000000
Si       2.17438920      -0.90334566       0.08623401       0.00000000
Si      -0.54706707       0.15731253      -2.36023906       0.00000000
Si       3.15618750       0.60747039      -1.46463674       0.00000000
Si      -3.41826102       0.44768178       1.14374439       0.00000000
Si      -2.43802656      -2.53806345      -1.03140284       0.00000000
Si      -2.22159762       2.41418193       1.69000781       0.00000000
Si       1.80630036      -3.23403741      -0.35336339       0.00000000
Si      -0.93833658      -2.49160437       2.62011061       0.00000000
