10
Lattice="16.28999089631971 0.0 0.0 0.0 16.28999089631971 0.0 0.0 0.0 34.397273925272025" Properties=species:S:1:pos:R:3:initial_magmoms:R:1 pbc="T T T"
Si      -2.17438920       0.90334566      -0.08623401       0.00000000
Si       0.98179830       1.51081605      -1.55087076       0.00000000
Si      -0.36808884      -2.33069175      -0.43959741       0.00000000
Si       1.52249598      -0.11593593       1.88638195       0.00000000
Si      -2.17701189       2.50315398       1.61392099       0.00000000
Si       3.06007650      -1.72848303       1.14594582       0.00000000
Si       3.03992577       0.40210236      -2.16661670       0.00000000
Si       0.59880411      -1.72173897       3.31049868       0.00000000
Si       1.87214454      -3.28349385      -0.26785172       0.00000000
Si      -2.72145627       1.06065819      -2.44647308       0.00000000
