10
Lattice="16.28999089631971 0.0 0.0 0.0 16.28999089631971 0.0 0.0 0.0 34.397273925272025" Properties=species:S:1:pos:R:3:initial_magmoms:R:1 pbc="T T T"
Si       2.04581223      -0.88813080      -0.71718356       0.00000000
Si      -1.66571766      -0.75465054      -1.49380565       0.00000000
Si      -0.18339282       2.37674358      -0.18399112       0.00000000
Si      -0.91553058      -1.40366043       1.74332361       0.00000000
Si       2.67664248      -1.71706374       1.35477179       0.00000000
Si      -0.32790141      -2.36410254      -2.64116176       0.00000000
Si      -3.29279544      -1.37327958       0.08031768       0.00000000
Si       2.96950410       0.71767224      -2.14130029       0.00000000
Si       1.93574070       3.13712820       0.66888976       0.00000000
Si       1.59514938      -3.11080356      -1.50777095       0.00000000
