10
Lattice="16.28999089631971 0.0 0.0 0.0 16.28999089631971 0.0 0.0 0.0 34.397273925272025" Properties=species:S:1:pos:R:3:initial_magmoms:R:1 pbc="T T T"
Si       1.35650088       1.35625273       1.35683563       0.00000000
Si       1.35487188      -1.35902052      -1.35831471       0.00000000
Si      -1.35868374      -1.35906939       1.35666364       0.00000000
Si      -1.36034532       1.35712751      -1.35914024       0.00000000
Si       0.00050499      -2.70221247      -2.72308235       0.00000000
Si       2.71399545       2.71213459      -0.00030958       0.00000000
Si      -2.70705591      -0.00326898      -2.71932273       0.00000000
Si      -0.00110772       2.71330747       2.71429040       0.00000000
Si       2.71389771      -0.00219333       2.71418721       0.00000000
Si      -2.71437012       2.71382875      -0.00010319       0.00000000
