10
Lattice="16.28999089631971 0.0 0.0 0.0 16.28999089631971 0.0 0.0 0.0 34.397273925272025" Properties=species:S:1:pos:R:3:initial_magmoms:R:1 pbc="T T T"
Si       1.35571896      -1.35351098      -1.35810833       0.00000000
Si      -1.36068741      -1.33019999       1.37757719       0.00000000
Si      -1.35887922       1.36069854      -1.35532214       0.00000000
Si       1.33887510       1.35711474       1.38366551       0.00000000
Si      -2.45570121       0.35448153       2.79842618       0.00000000
Si       0.07540641      -2.63385611       2.74913486       0.00000000
Si       2.71153566      -2.71281374       0.00151348       0.00000000
Si      -0.00216657      -2.71160828      -2.71411842       0.00000000
Si       2.71218726       0.00251800      -2.71404962       0.00000000
Si       2.70909216       2.72139083       0.00684506       0.00000000
