10
Lattice="16.28999089631971 0.0 0.0 0.0 16.28999089631971 0.0 0.0 0.0 34.397273925272025" Properties=species:S:1:pos:R:3:initial_magmoms:R:1 pbc="T T T"
Si      -1.25802783       1.43224938       1.35318951       0.00000000
Si       1.34164440       1.35677781      -1.36103210       0.00000000
Si      -1.38122910      -1.35027810      -1.36378388       0.00000000
Si       1.27479024      -1.35281934       1.48420880       0.00000000
Si      -0.54164250      -1.79523945       3.06486761       0.00000000
Si      -2.44100763      -0.04443912       2.75309055       0.00000000
Si       2.68205076      -2.71432614       0.01819617       0.00000000
Si       2.69930187       0.00490329      -2.72278653       0.00000000
Si      -0.01570356      -2.71074234      -2.72079149       0.00000000
Si      -2.73240315      -2.70050244       0.00808336       0.00000000
