10
Lattice="16.28999089631971 0.0 0.0 0.0 16.28999089631971 0.0 0.0 0.0 34.397273925272025" Properties=species:S:1:pos:R:3:initial_magmoms:R:1 pbc="T T T"
Si       1.81643274       0.44242011      -1.58065881       0.00000000
Si       0.05090625      -0.46631754       2.51967052       0.00000000
Si      -0.57088305      -1.92171990      -1.63191078       0.00000000
Si      -1.89936513       1.75080033      -0.31177707       0.00000000
Si      -3.14903619      -1.37663695       0.87207457       0.00000000
Si       0.54164250       1.79523945      -3.06486761       0.00000000
Si      -2.23493913      -0.39410397       2.89862550       0.00000000
Si      -0.71638533       3.22748883      -1.71167810       0.00000000
Si       0.51276033      -2.79201545       2.55441178       0.00000000
Si      -2.19076065      -0.90526299      -3.05678425       0.00000000
