10
Lattice="16.28999089631971 0.0 0.0 0.0 16.28999089631971 0.0 0.0 0.0 34.397273925272025" Properties=species:S:1:pos:R:3:initial_magmoms:R:1 pbc="T T T"
Si       2.25934155       0.04973337      -0.57529473       0.00000000
Si       0.28334826      -0.20412999       2.32167970       0.00000000
Si      -0.70910370       2.23218612      -0.34672471       0.00000000
Si      -1.45847628      -1.26723005      -1.42618057       0.00000000
Si      -3.30450795      -0.75348743       0.16410949       0.00000000
Si      -0.80946639       0.09080046      -3.37434006       0.00000000
Si      -0.29763459       2.28587796      -2.64700930       0.00000000
Si       3.07460718      -1.83109537       0.57065109       0.00000000
Si       1.72559970      -2.04856214       2.51629958       0.00000000
Si       1.22901534       1.82143377       3.06338853       0.00000000
