10
Lattice="16.28999089631971 0.0 0.0 0.0 16.28999089631971 0.0 0.0 0.0 34.397273925272025" Properties=species:S:1:pos:R:3:initial_magmoms:R:1 pbc="T T T"
Si      -0.86082876       1.71082467       1.43674054       0.00000000
Si       1.78748541      -0.85999797       1.37104171       0.00000000
Si      -1.69005492      -1.71330075       0.24246652       0.00000000
Si       0.12181662       0.33397758      -2.47199587       0.00000000
Si      -0.82385046      -1.69158618      -3.21370470       0.00000000
Si      -2.11032063       0.48782034       3.08715848       0.00000000
Si       0.61168950      -2.25043906       3.01868378       0.00000000
Si      -2.22379677       3.10482513       0.14550055       0.00000000
Si      -2.73219138      -1.89858321      -1.89222949       0.00000000
Si      -0.92300769       2.40210711      -2.84823346       0.00000000
