10
Lattice="16.28999089631971 0.0 0.0 0.0 16.28999089631971 0.0 0.0 0.0 34.397273925272025" Properties=species:S:1:pos:R:3:initial_magmoms:R:1 pbc="T T T"
Si      -1.04213646      -0.18528246      -2.13469601       0.00000000
Si      -1.78720848       0.79667874       1.41001384       0.00000000
Si       1.69005492       1.71330075      -0.24246652       0.00000000
Si       0.81285471      -1.79041158       1.45758530       0.00000000
Si       0.86620446       0.02171457      -3.45617122       0.00000000
Si      -1.51407405      -2.49863255      -2.05678614       0.00000000
Si      -0.42026571       2.20112109       2.84469196       0.00000000
Si       2.30174442      -0.53713831       2.77621726       0.00000000
Si       0.82922616       3.42412542       1.19427402       0.00000000
Si       3.47754033       0.85330278       1.12857519       0.00000000
