10
Lattice="16.28999089631971 0.0 0.0 0.0 16.28999089631971 0.0 0.0 0.0 34.397273925272025" Properties=species:S:1:pos:R:3:initial_magmoms:R:1 pbc="T T T"
Si      -1.34164440      -1.35677781       1.36103210       0.00000000
Si       1.35765747      -1.35187452      -1.36175444       0.00000000
Si      -1.35964485       1.36394541      -1.36134167       0.00000000
Si       1.36842516       1.37130849       1.38087933       0.00000000
Si      -2.59967223       0.07547157       2.71422161       0.00000000
Si       2.71062342      -2.70682785       0.00240781       0.00000000
Si      -0.00128691      -2.71019988      -2.71838368       0.00000000
Si      -2.72287350      -2.70705591      -0.00275178       0.00000000
Si       2.71164969       2.71917567       0.00024078       0.00000000
Si       2.71420722       0.00485442      -2.71855567       0.00000000
