10
Lattice="16.28999089631971 0.0 0.0 0.0 16.28999089631971 0.0 0.0 0.0 34.397273925272025" Properties=species:S:1:pos:R:3:initial_magmoms:R:1 pbc="T T T"
Si       1.25802783      -1.43224938      -1.35318951       0.00000000
Si      -1.18297980      -1.47668850       1.39990104       0.00000000
Si       0.98140734       1.67573601       1.35408384       0.00000000
Si      -1.47043314       1.27843920      -1.35982819       0.00000000
Si      -0.93307491       3.21994656       1.11701770       0.00000000
Si       0.71638533      -3.22748883       1.71167810       0.00000000
Si       2.59967223      -0.07547157      -2.71422161       0.00000000
Si       2.53281807      -2.78506872       0.13101929       0.00000000
Si       2.63937096       2.70831024       0.05328141       0.00000000
Si      -0.11463273       2.64412764      -2.72089468       0.00000000
