10
Lattice="16.28999089631971 0.0 0.0 0.0 16.28999089631971 0.0 0.0 0.0 34.397273925272025" Properties=species:S:1:pos:R:3:initial_magmoms:R:1 pbc="T T T"
Si      -0.19253151      -0.49430376       2.31046618       0.00000000
Si      -1.68901236       1.61771103      -0.51657855       0.00000000
Si       1.87945875      -0.56102760      -1.47395841       0.00000000
Si      -1.08582624      -2.15168094      -0.72340947       0.00000000
Si       1.70738748       1.74636945       0.67986250       0.00000000
Si       2.98165644       1.49892435      -1.22571314       0.00000000
Si      -3.15450963       0.36911511      -1.91407177       0.00000000
Si       2.97549882       0.47952873       2.21350021       0.00000000
Si      -0.67435713      -2.09798910      -3.02369405       0.00000000
Si       2.95757982      -2.31120891      -0.33379133       0.00000000
