10
Lattice="16.28999089631971 0.0 0.0 0.0 16.28999089631971 0.0 0.0 0.0 34.397273925272025" Properties=species:S:1:pos:R:3:initial_magmoms:R:1 pbc="T T T"
Si       1.35567009       1.35876519       1.37870198       0.00000000
Si      -1.35728280      -1.35682668       1.38203852       0.00000000
Si       1.49970627      -1.29932298      -1.34181433       0.00000000
Si      -1.42022736       1.38507354      -1.43414698       0.00000000
Si      -2.70014895      -2.71534752       0.00014791       0.00000000
Si      -2.72303640       2.71580364       0.01449502       0.00000000
Si       0.18246429      -2.69825931      -2.73835960       0.00000000
Si       2.71834488       2.73049722       0.01696131       0.00000000
Si      -2.71199178       0.00141723       2.74025004       0.00000000
Si       0.00158013      -2.71358820       2.74025004       0.00000000
