10
Lattice="16.28999089631971 0.0 0.0 0.0 16.28999089631971 0.0 0.0 0.0 34.397273925272025" Properties=species:S:1:pos:R:3:initial_magmoms:R:1 pbc="T T T"
Si       1.37192751       1.21767750       1.39014211       0.00000000
Si      -1.30232034       1.43620785      -1.39729899       0.00000000
Si       1.67539392      -0.87311142      -1.48504648       0.00000000
Si      -1.31215950      -1.54383588       1.34098150       0.00000000
Si      -1.78199568      -0.28786059      -2.90369405       0.00000000
Si       0.23060124      -1.49183820      -3.32488890       0.00000000
Si      -0.09352089       2.48598432       2.69975713       0.00000000
Si       0.38374353       2.30628933      -2.90338447       0.00000000
Si       2.62777248      -0.25068681       2.70111239       0.00000000
Si       2.61814509      -2.80963404      -0.17767417       0.00000000
