10
Lattice="16.28999089631971 0.0 0.0 0.0 16.28999089631971 0.0 0.0 0.0 34.397273925272025" Properties=species:S:1:pos:R:3:initial_magmoms:R:1 pbc="T T T"
Si      -1.35729909       1.35705474      -1.35772996       0.00000000
Si       1.35729909      -1.35785295      -1.35759237       0.00000000
Si       1.36001952       1.35666378       1.35690442       0.00000000
Si      -1.35571896      -1.35974259       1.35821152       0.00000000
Si       0.00164529      -2.71541268       2.71153862       0.00000000
Si      -2.71406061       0.00017919      -2.71425601       0.00000000
Si      -0.00048870      -2.71482624      -2.71425601       0.00000000
Si      -2.71531494       2.71495656       0.00058475       0.00000000
Si       2.71531494       2.71515204      -0.00034397       0.00000000
Si       2.71503801      -2.71557558      -0.00024078       0.00000000
