10
Lattice="16.28999089631971 0.0 0.0 0.0 16.28999089631971 0.0 0.0 0.0 34.397273925272025" Properties=species:S:1:pos:R:3:initial_magmoms:R:1 pbc="T T T"
Si      -1.34623818      -1.36915821       1.34238876       0.00000000
Si       1.35791811      -1.35441576      -1.36134167       0.00000000
Si      -1.35439947       1.35837423      -1.36202962       0.00000000
Si       1.38422646       1.36642149       1.37056015       0.00000000
Si       0.04122999      -2.64951963       2.76678067       0.00000000
Si      -2.71277370      -2.71370223      -0.00739542       0.00000000
Si       2.71318095      -2.71412577      -0.00048156       0.00000000
Si       2.71459818       2.71565703      -0.00364611       0.00000000
Si      -2.71542897       2.71557558      -0.00161667       0.00000000
Si       0.00061902      -2.71386513      -2.71917482       0.00000000
