10
Lattice="16.28999089631971 0.0 0.0 0.0 16.28999089631971 0.0 0.0 0.0 34.397273925272025" Properties=species:S:1:pos:R:3:initial_magmoms:R:1 pbc="T T T"
Si       1.33037172       1.34923554      -1.37420626       0.00000000
Si      -1.30575753       1.42819317       1.37341512       0.00000000
Si      -1.38422646      -1.36642149      -1.37056015       0.00000000
Si       1.45213947      -1.31163822       1.49810531       0.00000000
Si      -2.29548906      -0.53333460       2.46308697       0.00000000
Si      -0.45955719      -2.23076889       2.67143138       0.00000000
Si       2.69597871       2.71033020       0.02848096       0.00000000
Si       2.68876224      -2.72865645       0.00268299       0.00000000
Si       2.68973964      -0.00602730      -2.73406885       0.00000000
Si      -0.02544498       2.70853830      -2.73382806       0.00000000
