10
Lattice="16.28999089631971 0.0 0.0 0.0 16.28999089631971 0.0 0.0 0.0 34.397273925272025" Properties=species:S:1:pos:R:3:initial_magmoms:R:1 pbc="T T T"
Si       0.63083025      -0.82893294       2.07195535       0.00000000
Si       0.92369187       1.60580304      -1.42411673       0.00000000
Si      -2.04581223       0.88813080       0.71718356       0.00000000
Si      -0.45066285      -2.22267276      -0.79058739       0.00000000
Si       2.46127239      -0.00674406      -2.16455286       0.00000000
Si      -2.37371364      -1.47597174      -1.92397819       0.00000000
Si      -0.62569890      -3.30610437       1.23950646       0.00000000
Si       1.87698267       3.06468657       0.26362085       0.00000000
Si       2.64342717      -2.03291055       1.65076050       0.00000000
Si      -0.59880411       1.72173897      -3.31049868       0.00000000
