10
Lattice="16.28999089631971 0.0 0.0 0.0 16.28999089631971 0.0 0.0 0.0 34.397273925272025" Properties=species:S:1:pos:R:3:initial_magmoms:R:1 pbc="T T T"
Si      -0.63083025       0.82893294      -2.07195535       0.00000000
Si       0.47967534       1.72406844       1.50639506       0.00000000
Si       2.01259692      -1.20397761      -0.42119485       0.00000000
Si      -1.90205298      -1.36220238       1.07120050       0.00000000
Si      -1.25652915      -2.47717143      -0.83244889       0.00000000
Si      -1.08149310      -1.39373982      -2.86254274       0.00000000
Si       2.16573921       2.59414992       0.00030958       0.00000000
Si       1.78199568       0.28786059       2.90369405       0.00000000
Si      -2.67664248       1.71706374      -1.35477179       0.00000000
Si      -3.59217306       0.31340331       0.38855182       0.00000000
