10
Lattice="16.28999089631971 0.0 0.0 0.0 16.28999089631971 0.0 0.0 0.0 34.397273925272025" Properties=species:S:1:pos:R:3:initial_magmoms:R:1 pbc="T T T"
Si      -1.35617684      -1.35766562       1.35738598       0.00000000
Si      -1.35726827       1.35663120      -1.35776435       0.00000000
Si       1.35703899      -1.35761349      -1.35755797       0.00000000
Si       1.35946294       1.35865116       1.35721400       0.00000000
Si      -0.00398253       2.71521720       2.71236415       0.00000000
Si       0.00096479       2.71425609      -2.71473757       0.00000000
Si      -2.71451849       2.71461447      -0.00055036       0.00000000
Si       2.71496199       0.00006516      -2.71432480       0.00000000
Si      -2.71490945      -0.00161271      -2.71497835       0.00000000
Si       0.00144805      -2.71514294      -2.71508154       0.00000000
