10
Lattice="16.28999089631971 0.0 0.0 0.0 16.28999089631971 0.0 0.0 0.0 34.397273925272025" Properties=species:S:1:pos:R:3:initial_magmoms:R:1 pbc="T T T"
Si       1.34671059       1.36039649       1.36018248       0.00000000
Si       1.34693865      -1.32566391      -1.39443875       0.00000000
Si      -1.36625859      -1.35436689       1.36066404       0.00000000
Si      -1.33113735       1.24404679      -1.50293469       0.00000000
Si      -0.21053196      -2.44547109      -2.71290630       0.00000000
Si      -2.22277050      -0.49122495      -2.90382434       0.00000000
Si       2.60511309       0.08962450      -2.77872139       0.00000000
Si      -2.70589932       2.69671895      -0.02074845       0.00000000
Si       2.70756090      -2.69894349      -0.00375962       0.00000000
Si       2.70705591       0.00326898       2.71932273       0.00000000
