10
Lattice="16.28999089631971 0.0 0.0 0.0 16.28999089631971 0.0 0.0 0.0 34.397273925272025" Properties=species:S:1:pos:R:3:initial_magmoms:R:1 pbc="T T T"
Si      -1.35436689      -1.34319195      -1.36476764       0.00000000
Si      -1.35487188       1.35902052       1.35831471       0.00000000
Si       1.36029645      -1.35656604       1.35683563       0.00000000
Si       1.35826020       1.36185816      -1.37020241       0.00000000
Si       0.11108151      -2.61149877      -2.67438266       0.00000000
Si      -2.71355562      -0.00004887       2.71497835       0.00000000
Si       0.00162900       2.71527326       2.71515033       0.00000000
Si       0.00219915      -2.71572219       2.71497835       0.00000000
Si      -2.71521720       2.71614803      -0.00082554       0.00000000
Si      -2.71704168      -2.71492398      -0.00302696       0.00000000
