10
Lattice="16.28999089631971 0.0 0.0 0.0 16.28999089631971 0.0 0.0 0.0 34.397273925272025" Properties=species:S:1:pos:R:3:initial_magmoms:R:1 pbc="T T T"
Si      -1.55747061      -1.11980718      -1.31846755       0.00000000
Si       1.25817444       1.41528841      -1.38428264       0.00000000
Si      -1.34693865       1.32566391       1.39443875       0.00000000
Si       1.36062225      -1.37327958       1.39067912       0.00000000
Si       0.15182280      -2.42305605      -2.70637700       0.00000000
Si      -2.67807600       2.56971070      -0.10849594       0.00000000
Si       2.66033619      -0.08000019      -2.59286593       0.00000000
Si       2.74706415       2.66856168      -0.06565067       0.00000000
Si      -0.00022806       2.68606040       2.75462123       0.00000000
Si      -2.71319724      -0.02870298       2.75510279       0.00000000
