10
Lattice="16.28999089631971 0.0 0.0 0.0 16.28999089631971 0.0 0.0 0.0 34.397273925272025" Properties=species:S:1:pos:R:3:initial_magmoms:R:1 pbc="T T T"
Si       1.35614250       1.35648459       1.35714520       0.00000000
Si       1.35265644      -1.35839052      -1.36086011       0.00000000
Si      -1.35824391      -1.35886293       1.35721400       0.00000000
Si      -1.35848826       1.35791811      -1.35817712       0.00000000
Si       2.71437012      -0.00076563       2.71459998       0.00000000
Si      -0.00084708       2.71386253       2.71511594       0.00000000
Si      -2.71551042       2.71401742      -0.00034397       0.00000000
Si       2.71482624       2.71555398       0.00048156       0.00000000
Si      -2.71500543      -2.71573848       0.00068795       0.00000000
Si      -0.00094482      -2.71591767       2.71494395       0.00000000
