10
Lattice="16.28999089631971 0.0 0.0 0.0 16.28999089631971 0.0 0.0 0.0 34.397273925272025" Properties=species:S:1:pos:R:3:initial_magmoms:R:1 pbc="T T T"
Si       1.30575753      -1.42819317      -1.37341512       0.00000000
Si      -1.43609382       1.30365612      -1.37155767       0.00000000
Si       1.44866970       1.25856540       1.45249450       0.00000000
Si      -0.98973153      -1.96152777       1.08967185       0.00000000
Si      -0.07540641       2.63385611      -2.74913486       0.00000000
Si       2.63612925      -0.07895763      -2.74762138       0.00000000
Si       2.75789700      -2.73983139       0.12469019       0.00000000
Si       2.67947694       2.81546653       0.16651730       0.00000000
Si      -2.53110762       2.98833764       0.04929132       0.00000000
Si      -0.07846893      -2.79461466      -2.74397527       0.00000000
