10
Lattice="16.28999089631971 0.0 0.0 0.0 16.28999089631971 0.0 0.0 0.0 34.397273925272025" Properties=species:S:1:pos:R:3:initial_magmoms:R:1 pbc="T T T"
Si      -1.98672840      -0.82978002       0.87709658       0.00000000
Si       1.00250289      -0.03865617       2.17470006       0.00000000
Si      -0.38995002       2.44767024      -0.22182814       0.00000000
Si       0.21216096       1.89351702      -2.44265498       0.00000000
Si      -2.41078968       1.19395926       2.10862286       0.00000000
Si      -0.27390006       1.75555701       2.96927754       0.00000000
Si      -3.51170046      -0.79856838      -0.88242816       0.00000000
Si       3.29220900      -0.14827158       1.73424273       0.00000000
Si       3.43442070       1.48126599       0.05482929       0.00000000
Si      -2.22624027      -1.32657615      -2.80547763       0.00000000
