10
Lattice="16.28999089631971 0.0 0.0 0.0 16.28999089631971 0.0 0.0 0.0 34.397273925272025" Properties=species:S:1:pos:R:3:initial_magmoms:R:1 pbc="T T T"
Si       0.88423749      -1.19772225       1.82611790       0.00000000
Si      -0.94613949      -1.15201251      -1.91868101       0.00000000
Si      -1.40934564       1.72128285       1.07446825       0.00000000
Si       1.90324119       0.97026498      -1.58464890       0.00000000
Si       0.98606628      -0.56268918      -3.19000497       0.00000000
Si      -2.68035660       0.52610184      -2.04261446       0.00000000
Si       3.52102553      -0.25790328      -0.11736356       0.00000000
Si       0.35339526       0.07206696       3.74256308       0.00000000
Si       0.47382723       3.36219084      -1.64811190       0.00000000
Si       0.01268991       3.74158494       0.69007850       0.00000000
