10
Lattice="16.28999089631971 0.0 0.0 0.0 16.28999089631971 0.0 0.0 0.0 34.397273925272025" Properties=species:S:1:pos:R:3:initial_magmoms:R:1 pbc="T T T"
Si       1.93220577       0.58932333      -1.27132395       0.00000000
Si      -1.73421711       1.67811435      -0.12393345       0.00000000
Si      -0.72371583      -2.02951246      -1.10559780       0.00000000
Si       0.94613949       1.15201251       1.91868101       0.00000000
Si       0.59214150       1.88695215      -2.65705331       0.00000000
Si      -2.13972408      -0.85400814      -2.63758444       0.00000000
Si       2.84938068       2.12227749       0.33403211       0.00000000
Si      -0.55654785       3.47578101      -1.16544909       0.00000000
Si      -3.54698460       0.50749866      -1.17157180       0.00000000
Si      -1.95452307      -3.58641359       0.18037941       0.00000000
