10
Lattice="16.28999089631971 0.0 0.0 0.0 16.28999089631971 0.0 0.0 0.0 34.397273925272025" Properties=species:S:1:pos:R:3:initial_magmoms:R:1 pbc="T T T"
Si      -2.30982426      -0.31883928      -0.44516977       0.00000000
Si       0.81557255      -2.22130507       0.41249234       0.00000000
Si       0.08148258       0.89507523       2.23276270       0.00000000
Si       0.80653486       1.36895296      -1.87929611       0.00000000
Si      -2.04636609      -2.26606999      -1.70968306       0.00000000
Si       2.72724641      -2.16471361      -0.93381771       0.00000000
Si      -0.52165467      -1.43529628      -3.40505684       0.00000000
Si       0.02005299       3.20490112       2.02644773       0.00000000
Si      -0.76194846      -3.73697554      -0.43099808       0.00000000
Si      -3.12508989       1.56198946      -1.59111559       0.00000000
