10
Lattice="16.28999089631971 0.0 0.0 0.0 16.28999089631971 0.0 0.0 0.0 34.397273925272025" Properties=species:S:1:pos:R:3:initial_magmoms:R:1 pbc="T T T"
Si       1.76503194      -0.08671167       1.63899662       0.00000000
Si      -1.13182920       2.11691808       0.24191616       0.00000000
Si       0.46113732      -0.37939410      -2.33819040       0.00000000
Si      -1.42203555      -2.02030209       0.38438975       0.00000000
Si      -2.95430553       1.34664543       1.66500097       0.00000000
Si      -3.13602048      -1.47716091      -1.18285412       0.00000000
Si      -0.01268991      -3.74158494      -0.69007850       0.00000000
Si       0.22711518       3.37502736       1.74899916       0.00000000
Si       3.53047373      -1.42469082       0.41926861       0.00000000
Si       1.25525268      -1.51407405       3.46968936       0.00000000
