10
Lattice="16.28999089631971 0.0 0.0 0.0 16.28999089631971 0.0 0.0 0.0 34.397273925272025" Properties=species:S:1:pos:R:3:initial_magmoms:R:1 pbc="T T T"
Si      -1.35063648      -1.35604476      -1.36632928       0.00000000
Si       1.36208835       1.35972630      -1.36911546       0.00000000
Si       1.37277459      -1.29642336       1.43711891       0.00000000
Si      -1.51982442       1.20642111       1.40423510       0.00000000
Si       0.00293220       2.50507620       2.65540224       0.00000000
Si      -0.23297958      -2.34574371       2.89446342       0.00000000
Si      -2.69856230       2.70855459      -0.01358693       0.00000000
Si      -2.70612738      -2.71634773       0.01867773       0.00000000
Si       2.71982727      -2.70314142       0.00526279       0.00000000
Si       2.72376945       2.70804960      -0.00945926       0.00000000
