10
Lattice="16.28999089631971 0.0 0.0 0.0 16.28999089631971 0.0 0.0 0.0 34.397273925272025" Properties=species:S:1:pos:R:3:initial_magmoms:R:1 pbc="T T T"
Si      -1.35723393      -1.35645201      -1.35717960       0.00000000
Si      -1.35708732       1.35843939       1.35683563       0.00000000
Si       1.35748048      -1.35814617       1.35735158       0.00000000
Si       1.35864979       1.35826020      -1.35666364       0.00000000
Si      -2.71189404      -0.00182448      -2.71490955       0.00000000
Si       0.00099369       2.71088406      -2.71735176       0.00000000
Si      -2.71430496       2.71404432      -0.00013759       0.00000000
Si       0.00123804       2.71599912       2.71308650       0.00000000
Si       2.71533353       2.71437012      -0.00010319       0.00000000
Si       2.71132782       0.00107514      -2.71862446       0.00000000
