10
Lattice="16.28999089631971 0.0 0.0 0.0 16.28999089631971 0.0 0.0 0.0 34.397273925272025" Properties=species:S:1:pos:R:3:initial_magmoms:R:1 pbc="T T T"
Si      -1.34322453      -1.34786718       1.38063855       0.00000000
Si      -1.35526284       1.35971001      -1.36086011       0.00000000
Si       1.36161594      -1.35788553      -1.36072252       0.00000000
Si       1.35980775       1.35189081       1.37372470       0.00000000
Si       0.21193290      -2.46049047       2.85112283       0.00000000
Si       2.71309349      -2.71371852      -0.00588194       0.00000000
Si      -2.71318095       2.71412577       0.00048156       0.00000000
Si      -2.71164969      -2.71917567      -0.00024078       0.00000000
Si      -2.71256193       0.00026064      -2.71869326       0.00000000
Si       0.00255753      -2.71432125      -2.71879645       0.00000000
