10
Lattice="16.28999089631971 0.0 0.0 0.0 16.28999089631971 0.0 0.0 0.0 34.397273925272025" Properties=species:S:1:pos:R:3:initial_magmoms:R:1 pbc="T T T"
Si       1.11544539       1.53301932       1.38394069       0.00000000
Si      -1.90107558       1.38927636      -0.11571249       0.00000000
Si      -0.11938941      -2.18318580       0.95600397       0.00000000
Si       0.82958195      -0.20628027      -2.26175961       0.00000000
Si       1.29066877      -3.09852090      -0.71742434       0.00000000
Si      -0.95218308       3.08156301      -1.55290020       0.00000000
Si       0.07998390      -2.38215186      -2.68051226       0.00000000
Si      -0.14214654       1.67845644      -3.22423027       0.00000000
Si       3.38985845       1.09590975       0.99476972       0.00000000
Si      -2.22244470      -3.09580047       0.45246199       0.00000000
