10
Lattice="16.28999089631971 0.0 0.0 0.0 16.28999089631971 0.0 0.0 0.0 34.397273925272025" Properties=species:S:1:pos:R:3:initial_magmoms:R:1 pbc="T T T"
Si      -0.98407890      -1.59532857      -1.44264797       0.00000000
Si      -1.44583524       1.26356430       1.39880376       0.00000000
Si       1.28702403      -1.44287046       1.40099143       0.00000000
Si       1.25930565       1.32729065      -1.58742618       0.00000000
Si       2.53884115       2.63581389      -0.01121696       0.00000000
Si      -2.77202043       2.60035545      -0.05209126       0.00000000
Si      -0.08737956       2.61911827       2.77217073       0.00000000
Si       2.62525797      -0.10046043       2.77096682       0.00000000
Si      -2.69301393      -2.70979263       0.09462351       0.00000000
Si       2.84008561      -2.58458769       0.00665588       0.00000000
