10
Lattice="16.28999089631971 0.0 0.0 0.0 16.28999089631971 0.0 0.0 0.0 34.397273925272025" Properties=species:S:1:pos:R:3:initial_magmoms:R:1 pbc="T T T"
Si      -0.44020467      -0.82249839       2.12492718       0.00000000
Si       2.26061284      -0.61276464      -0.16441906       0.00000000
Si       0.17593200       2.35353033      -0.03611716       0.00000000
Si      -1.71874161      -0.94029138      -1.32625643       0.00000000
Si      -1.22104953       0.58034754      -3.01371884       0.00000000
Si      -0.56964501      -2.87445195      -2.01956827       0.00000000
Si       2.93857006       0.56943324      -2.01853635       0.00000000
Si      -0.96014889      -3.04968348       1.69434187       0.00000000
Si      -2.12822334       2.93887890      -0.00082554       0.00000000
Si       3.12827851       0.21269853       1.83007358       0.00000000
