10
Lattice="16.28999089631971 0.0 0.0 0.0 16.28999089631971 0.0 0.0 0.0 34.397273925272025" Properties=species:S:1:pos:R:3:initial_magmoms:R:1 pbc="T T T"
Si       1.65363048      -1.39079133      -0.93794539       0.00000000
Si       1.56278115       1.64851542       0.64611875       0.00000000
Si      -1.32102126       0.80094672      -1.80214298       0.00000000
Si      -1.30087053      -1.32963867       1.51041954       0.00000000
Si       2.84719878       0.17760987       1.92480373       0.00000000
Si      -2.83845105       0.28290843       2.25085567       0.00000000
Si      -1.60000380      -1.26864891      -3.01911921       0.00000000
Si       2.09383515      -0.56829294      -3.06287257       0.00000000
Si      -2.48880249      -2.88464949       0.09662200       0.00000000
Si       3.65723532      -1.22549670       0.25347365       0.00000000
