10
Lattice="16.28999089631971 0.0 0.0 0.0 16.28999089631971 0.0 0.0 0.0 34.397273925272025" Properties=species:S:1:pos:R:3:initial_magmoms:R:1 pbc="T T T"
Si       2.08518516       0.57063870      -0.79192888       0.00000000
Si       0.06178797       1.24170525       1.94434139       0.00000000
Si      -1.92306382       0.50609772      -1.18085907       0.00000000
Si       0.09778887      -2.38439988       0.05524205       0.00000000
Si       3.23030700      -0.56027826       0.91493360       0.00000000
Si       1.88727795      -0.53349750      -2.79615596       0.00000000
Si       2.05516269       0.36026964       2.77826937       0.00000000
Si      -2.10176871       0.91632879       2.73565112       0.00000000
Si      -3.31950194       1.27215126       0.58423802       0.00000000
Si       1.32561504      -2.69594613      -1.99194725       0.00000000
