10
Lattice="16.28999089631971 0.0 0.0 0.0 16.28999089631971 0.0 0.0 0.0 34.397273925272025" Properties=species:S:1:pos:R:3:initial_magmoms:R:1 pbc="T T T"
Si       1.35668374       1.35610992       1.35656045       0.00000000
Si      -1.35765610       1.35262386      -1.36068812       0.00000000
Si       1.35267803      -1.35718506      -1.36196082       0.00000000
Si      -1.35864979      -1.35826020       1.35666364       0.00000000
Si       2.71276597       2.71368594      -0.00068795       0.00000000
Si      -0.00146272       2.71308321       2.71370565       0.00000000
Si       2.71403659      -0.00109143       2.71377444       0.00000000
Si      -2.71573711       0.00017919       2.71349926       0.00000000
Si      -2.71485745       2.71494027      -0.00161667       0.00000000
Si      -2.70822742      -0.00835677      -2.72186469       0.00000000
