10
Lattice="16.28999089631971 0.0 0.0 0.0 16.28999089631971 0.0 0.0 0.0 34.397273925272025" Properties=species:S:1:pos:R:3:initial_magmoms:R:1 pbc="T T T"
Si      -0.39649697       0.21491397       2.35875998       0.00000000
Si      -2.00646441       1.19557197      -0.81662614       0.00000000
Si       2.47360229       0.05945850      -0.27552232       0.00000000
Si      -0.46854764      -2.26616706      -0.92662868       0.00000000
Si       1.26907082       2.36452608      -0.63308218       0.00000000
Si      -0.87492776       2.50523910       2.47264942       0.00000000
Si      -2.62869354      -0.61522443       2.55912421       0.00000000
Si      -0.19697054       3.68743698       0.61853213       0.00000000
Si      -3.70518561       0.24355179       0.61750021       0.00000000
Si      -0.97832690      -3.69352944       0.90406406       0.00000000
