10
Lattice="16.28999089631971 0.0 0.0 0.0 16.28999089631971 0.0 0.0 0.0 34.397273925272025" Properties=species:S:1:pos:R:3:initial_magmoms:R:1 pbc="T T T"
Si       1.24284555      -1.42500033       1.46319206       0.00000000
Si      -2.47360229      -0.05945850       0.27552232       0.00000000
Si       0.79410492       2.22198858       0.91913007       0.00000000
Si      -1.20453147       2.30506758      -0.35755986       0.00000000
Si      -0.06458985      -1.69013637      -2.84190436       0.00000000
Si       3.32967600      -1.20717045       0.34964848       0.00000000
Si      -2.94214993      -2.32562556      -0.65110636       0.00000000
Si       1.33196814      -0.51776136       3.61212855       0.00000000
Si      -2.87009926       0.15545547       2.63428230       0.00000000
Si       3.48079833      -0.19321569      -1.79185819       0.00000000
