10
Lattice="16.28999089631971 0.0 0.0 0.0 16.28999089631971 0.0 0.0 0.0 34.397273925272025" Properties=species:S:1:pos:R:3:initial_magmoms:R:1 pbc="T T T"
Si      -0.97172849       1.88473671      -0.96247066       0.00000000
Si      -0.74959805      -2.17587159      -0.41875265       0.00000000
Si       2.11329518      -0.19140750      -1.06205082       0.00000000
Si      -0.82958195       0.20628027       2.26175961       0.00000000
Si       0.46108682      -2.89224063       1.54433527       0.00000000
Si      -3.04586903      -1.87012458      -0.72499175       0.00000000
Si       0.59314985       2.75463900      -2.44874330       0.00000000
Si      -1.78176503       3.28784328       0.70885942       0.00000000
Si      -2.73065753       1.59555663       2.14604712       0.00000000
Si       2.68766429       1.87435998      -1.96910744       0.00000000
