10
Lattice="16.28999089631971 0.0 0.0 0.0 16.28999089631971 0.0 0.0 0.0 34.397273925272025" Properties=species:S:1:pos:R:3:initial_magmoms:R:1 pbc="T T T"
Si      -0.76587435       1.82851992       1.25642993       0.00000000
Si       1.69564239      -0.94144797       1.39735564       0.00000000
Si      -2.06890168      -1.33151202      -0.13136326       0.00000000
Si       2.12156073      -0.87047244      -0.96522244       0.00000000
Si      -0.25570413      -0.84009159      -2.62822837       0.00000000
Si      -2.53011719      -0.40298202      -2.23905740       0.00000000
Si      -1.88923438       0.44686728       2.85209425       0.00000000
Si       0.13377348      -3.08004804      -2.17160431       0.00000000
Si       0.58358925      -2.56622886       2.76318413       0.00000000
Si      -1.23400008      -3.61620081      -0.31091713       0.00000000
