10
Lattice="16.28999089631971 0.0 0.0 0.0 16.28999089631971 0.0 0.0 0.0 34.397273925272025" Properties=species:S:1:pos:R:3:initial_magmoms:R:1 pbc="T T T"
Si      -1.73397832      -1.03563675      -1.19154219       0.00000000
Si      -1.55306158       1.14171723       1.39433555       0.00000000
Si       1.12336003       1.38165264      -1.59566433       0.00000000
Si       1.15150915      -1.59309684       1.37961351       0.00000000
Si       1.88923438      -0.44686728      -2.85209425       0.00000000
Si      -0.17966730      -1.77837930      -2.98345752       0.00000000
Si       2.57172022       2.49981453      -0.08501635       0.00000000
Si      -0.21482763       2.48412726       2.76431095       0.00000000
Si       2.50701634      -0.23089446       2.76193753       0.00000000
Si      -2.84008561       2.58458769      -0.00665588       0.00000000
