10
Lattice="16.28999089631971 0.0 0.0 0.0 16.28999089631971 0.0 0.0 0.0 34.397273925272025" Properties=species:S:1:pos:R:3:initial_magmoms:R:1 pbc="T T T"
Si       1.35680225       1.35583299      -1.35838350       0.00000000
Si       1.35729094      -1.35907470       1.35831471       0.00000000
Si      -1.36344547       1.35656604       1.35515016       0.00000000
Si      -1.35946294      -1.35865116      -1.35721400       0.00000000
Si       0.00936512       2.70552465       2.71105706       0.00000000
Si       2.71294475       2.71414206      -0.00347413       0.00000000
Si      -2.71492302       2.71239903       0.00030958       0.00000000
Si       2.71300991      -0.00130320      -2.71497835       0.00000000
Si       2.71307507      -2.71571404      -0.00089433       0.00000000
Si      -0.00135533       2.71342530      -2.71539112       0.00000000
