10
Lattice="10.86 0.0 0.0 0.0 10.86 0.0 0.0 0.0 10.86" Properties=species:S:1:pos:R:3:initial_magmoms:R:1 pbc="T T T"
Si      -1.36477620       1.31114952      -1.38599664       0.00000000
Si      -1.36477620      -1.40385048       1.32900336       0.00000000
Si       1.35022380      -1.40385048      -1.38599664       0.00000000
Si       1.46716428       1.26438636       1.45251414       0.00000000
Si       0.00668976       2.65584558       2.67148398       0.00000000
Si       2.59145664      -2.75223894      -0.05576610       0.00000000
Si       2.64851508       2.73294072       0.08456682       0.00000000
Si      -2.72227620       2.66864952      -0.02849664       0.00000000
Si      -2.72227620      -0.04635048       2.68650336       0.00000000
Si      -0.00727620       2.66864952      -2.74349664       0.00000000
