10
Lattice="10.86 0.0 0.0 0.0 10.86 0.0 0.0 0.0 10.86" Properties=species:S:1:pos:R:3:initial_magmoms:R:1 pbc="T T T"
Si       1.41670872       1.29320880       1.24443654       0.00000000
Si      -1.18135080      -1.46855436       1.36794732       0.00000000
Si      -1.29829128       1.29320880      -1.47056346       0.00000000
Si       1.41670872      -1.42179120      -1.47056346       0.00000000
Si      -2.64182532      -0.07709514       2.58691716       0.00000000
Si       0.05920872       2.65070880       2.60193654       0.00000000
Si      -2.65579128       2.65070880      -0.11306346       0.00000000
Si       2.70003492      -0.08159118       2.61274224       0.00000000
Si      -2.64851508      -2.73294072      -0.08456682       0.00000000
Si       2.77420872       2.65070880      -0.11306346       0.00000000
