10
Lattice="16.28999089631971 0.0 0.0 0.0 16.28999089631971 0.0 0.0 0.0 34.53561885213415" Properties=species:S:1:pos:R:3:initial_magmoms:R:1 pbc="T T T"
Si      -2.19227725      -0.40022901      -0.77066277       0.00000000
Si       1.52549334      -1.58970852      -0.89609620       0.00000000
Si       0.26928999       2.38849586       0.02510741       0.00000000
Si      -0.06250473      -0.68092200       2.30632445       0.00000000
Si      -2.75471135      -2.28271770       0.53564775       0.00000000
Si       2.86111044      -0.22740840      -2.22986255       0.00000000
Si      -3.42450728       1.35889292       0.19737117       0.00000000
Si       1.49415138       2.74086485       2.02344304       0.00000000
Si      -1.95047338       3.19361282       0.05311581       0.00000000
Si       2.88342774      -2.25621387       0.96658344       0.00000000
