10
Lattice="16.28999089631971 0.0 0.0 0.0 16.28999089631971 0.0 0.0 0.0 34.53561885213415" Properties=species:S:1:pos:R:3:initial_magmoms:R:1 pbc="T T T"
Si       1.34388753       1.33931819      -1.38180542       0.00000000
Si      -1.37193958      -1.37184999      -1.37817918       0.00000000
Si      -1.28594742       1.44539867       1.42666721       0.00000000
Si       1.32800478      -1.37197085       1.51739233       0.00000000
Si      -2.36106838      -0.45446494       2.44733346       0.00000000
Si      -0.54153173      -2.30968158       2.71878358       0.00000000
Si       2.67722403      -2.72494626      -0.00935916       0.00000000
Si       2.70335319       2.70427358      -0.00259017       0.00000000
Si      -0.01520997       2.70090155      -2.73912507       0.00000000
Si       2.70164274      -0.01210836      -2.73991939       0.00000000
