10
Lattice="16.28999089631971 0.0 0.0 0.0 16.28999089631971 0.0 0.0 0.0 34.53561885213415" Properties=species:S:1:pos:R:3:initial_magmoms:R:1 pbc="T T T"
Si       1.51180974      -1.67074217      -0.63165682       0.00000000
Si      -2.33150625       0.38291274       0.00003454       0.00000000
Si       0.76036833      -0.10722241       2.26892236       0.00000000
Si       0.60400062       1.63587438      -1.65943741       0.00000000
Si       0.95884569       3.38646294      -0.10730223       0.00000000
Si      -0.54845172       3.15900567       1.71773357       0.00000000
Si       3.56966028      -0.82362959       0.11852631       0.00000000
Si      -0.29919843      -1.96502102       3.24244746       0.00000000
Si       1.83728394      -1.46275145      -3.02224823       0.00000000
Si       3.10943520      -0.27489212       2.31219551       0.00000000
