10
Lattice="16.28999089631971 0.0 0.0 0.0 16.28999089631971 0.0 0.0 0.0 34.53561885213415" Properties=species:S:1:pos:R:3:initial_magmoms:R:1 pbc="T T T"
Si      -0.03551220      -0.78337958      -2.28522318       0.00000000
Si       0.04220739       2.44392517       0.09694154       0.00000000
Si      -0.72568692      -1.41149592       1.90767958       0.00000000
Si      -2.49543252       0.89665210      -0.27241711       0.00000000
Si       2.38260798       1.92477916       0.06157704       0.00000000
Si      -0.08676054       2.41696522       2.56368403       0.00000000
Si      -2.23389657       2.23832908       1.72909580       0.00000000
Si       1.77301989      -2.58197056      -2.27579495       0.00000000
Si       0.41216958      -0.63481967       3.86757705       0.00000000
Si       0.86480352       1.11902689      -3.70999093       0.00000000
