10
Lattice="16.28999089631971 0.0 0.0 0.0 16.28999089631971 0.0 0.0 0.0 34.53561885213415" Properties=species:S:1:pos:R:3:initial_magmoms:R:1 pbc="T T T"
Si       0.29282904       0.62670888       2.21843125       0.00000000
Si      -1.77982911       1.48838472      -0.34791202       0.00000000
Si      -0.51135939      -2.10676031      -0.89782299       0.00000000
Si       1.86233796       0.65280546      -1.29007876       0.00000000
Si      -3.10317984       0.50914395       1.35714697       0.00000000
Si      -1.66724892      -1.27017040      -2.76264384       0.00000000
Si       1.03988844       2.82673854       1.74253016       0.00000000
Si      -0.42339339       3.46515993      -0.03229082       0.00000000
Si      -2.65891896       0.82823247      -2.41521532       0.00000000
Si       1.48932954      -3.08329694      -1.53169009       0.00000000
