10
Lattice="16.28999089631971 0.0 0.0 0.0 16.28999089631971 0.0 0.0 0.0 34.53561885213415" Properties=species:S:1:pos:R:3:initial_magmoms:R:1 pbc="T T T"
Si      -1.74863376       1.20731217      -0.87748149       0.00000000
Si      -0.55796508      -2.27284174      -0.48871382       0.00000000
Si       1.95330132       0.35559278      -1.40639479       0.00000000
Si      -0.35129385       0.92953509       2.23735678       0.00000000
Si       0.01384650      -3.37010356       1.55548514       0.00000000
Si      -2.04146280       0.58060329      -3.09591275       0.00000000
Si      -2.14407351      -0.53488541       3.08613916       0.00000000
Si      -1.00157436       3.40734183      -1.35338259       0.00000000
Si       2.64849336      -1.83335383      -2.03794801       0.00000000
Si       1.77029946       0.61828206       3.34802291       0.00000000
