10
Lattice="16.28999089631971 0.0 0.0 0.0 16.28999089631971 0.0 0.0 0.0 34.53561885213415" Properties=species:S:1:pos:R:3:initial_magmoms:R:1 pbc="T T T"
Si      -1.86953651      -0.93771073       1.20139124       0.00000000
Si      -1.32800478       1.37197085      -1.51739233       0.00000000
Si       1.89851805       0.80785629       1.30862440       0.00000000
Si       1.34921925      -1.35297541      -1.52675149       0.00000000
Si       2.77485489      -2.62232479      -0.13085553       0.00000000
Si      -2.61395221       2.81736952      -0.09072512       0.00000000
Si       2.79883377       2.71026277      -0.11614335       0.00000000
Si      -3.68907317       0.91750591       0.92994113       0.00000000
Si      -2.69994437       0.00012086      -2.89557151       0.00000000
Si       0.01588275      -2.71281574      -2.89622769       0.00000000
