10
Lattice="16.28999089631971 0.0 0.0 0.0 16.28999089631971 0.0 0.0 0.0 34.53561885213415" Properties=species:S:1:pos:R:3:initial_magmoms:R:1 pbc="T T T"
Si      -1.39271355       0.18340911       1.88333196       0.00000000
Si      -1.86784398       0.18585261      -1.61364316       0.00000000
Si       1.42048800       2.06089677      -1.57112979       0.00000000
Si      -0.82551204      -2.93969340       0.75329134       0.00000000
Si      -0.20194713       1.18019421      -3.03837637       0.00000000
Si       0.64545867       2.53071666       2.02769092       0.00000000
Si      -0.10837737      -0.81810009       3.56690978       0.00000000
Si       3.14178714      -1.51625691       1.24949939       0.00000000
Si       1.51488855      -3.45883941       0.71792685       0.00000000
Si      -1.56831975       2.41978176       2.54931720       0.00000000
