10
Lattice="16.28999089631971 0.0 0.0 0.0 16.28999089631971 0.0 0.0 0.0 34.53561885213415" Properties=species:S:1:pos:R:3:initial_magmoms:R:1 pbc="T T T"
Si       1.17282298       1.35146727      -1.53289884       0.00000000
Si      -1.43379872      -1.18328931      -1.58515126       0.00000000
Si       0.61875122      -1.51277085       1.82700433       0.00000000
Si      -0.68337202       1.97205111       1.32288762       0.00000000
Si      -2.99724501       1.39515705       1.21776114       0.00000000
Si       2.11405918       3.16004823      -0.17057152       0.00000000
Si       3.15639112       0.03450222       2.19636298       0.00000000
Si       0.88028716      -0.17109387       3.82851724       0.00000000
Si       2.55550189       0.07558560      -3.01440864       0.00000000
Si      -0.14785130      -2.62868798      -3.01181847       0.00000000
