10
Lattice="16.28999089631971 0.0 0.0 0.0 16.28999089631971 0.0 0.0 0.0 34.53561885213415" Properties=species:S:1:pos:R:3:initial_magmoms:R:1 pbc="T T T"
Si      -0.87791697       0.77908554       2.05849671       0.00000000
Si      -0.74705940      -2.20002966       0.47590109       0.00000000
Si      -1.46328183       0.63842139      -1.77482098       0.00000000
Si       2.14044084       1.15093737      -0.07660005       0.00000000
Si      -1.03988844      -2.82673854      -1.74253016       0.00000000
Si      -0.46304325       3.04569243       1.86502807       0.00000000
Si       1.41498198       3.38116869       0.32812310       0.00000000
Si      -2.81971755      -1.33835382      -2.09044218       0.00000000
Si       1.00157436      -3.40734183       1.35338259       0.00000000
Si       0.82244952      -2.17393308      -3.03260892       0.00000000
