10
Lattice="16.28999089631971 0.0 0.0 0.0 16.28999089631971 0.0 0.0 0.0 34.53561885213415" Properties=species:S:1:pos:R:3:initial_magmoms:R:1 pbc="T T T"
Si       1.35694071       1.35698958      -1.35745779       0.00000000
Si      -1.35788553      -1.35769005      -1.35649080       0.00000000
Si       1.35739683      -1.35725022       1.35818304       0.00000000
Si      -1.35757602       1.35725022       1.35825211       0.00000000
Si      -0.00094482       2.71399545       2.71515734       0.00000000
Si       2.71479366      -2.71497285       0.00020721       0.00000000
Si      -2.71475131       2.71508688       0.00044896       0.00000000
Si      -2.71522046      -2.71480995       0.00048350       0.00000000
Si       2.71539639       2.71466334       0.00055257       0.00000000
Si       2.71494027       0.00017919       2.71615887       0.00000000
