10
Lattice="16.28999089631971 0.0 0.0 0.0 16.28999089631971 0.0 0.0 0.0 34.53561885213415" Properties=species:S:1:pos:R:3:initial_magmoms:R:1 pbc="T T T"
Si      -1.35806472       1.35490446      -1.36094589       0.00000000
Si      -1.36583505      -1.34478837       1.36491749       0.00000000
Si       1.35782037      -1.35891180      -1.35994436       0.00000000
Si       1.37217186       1.34907264       1.38767648       0.00000000
Si       2.71562445       2.71129131       0.00051803       0.00000000
Si      -2.71388142       2.71422351       0.00013814       0.00000000
Si      -2.71414206      -2.71401174       0.00103607       0.00000000
Si       0.00011403       2.71355562      -2.71833461       0.00000000
Si      -2.71469592      -0.00184077      -2.71785112       0.00000000
Si       2.71655298      -2.71625976      -0.00165771       0.00000000
