10
Lattice="16.28999089631971 0.0 0.0 0.0 16.28999089631971 0.0 0.0 0.0 34.53561885213415" Properties=species:S:1:pos:R:3:initial_magmoms:R:1 pbc="T T T"
Si      -0.70905646       0.15630744      -2.21093702       0.00000000
Si      -0.55962992       2.20330069       0.75467276       0.00000000
Si      -1.41972547      -1.72235214       0.88400873       0.00000000
Si       2.39040274      -0.06778758      -0.33969254       0.00000000
Si       1.27655770      -1.56028293       2.70697239       0.00000000
Si       0.62065715       2.24036044      -2.51978923       0.00000000
Si      -0.34992712      -2.39670927      -2.57763642       0.00000000
Si      -3.46423044      -0.59523075       0.58772749       0.00000000
Si       0.88219309       3.58203742      -0.51827632       0.00000000
Si       3.52825925       0.70888867       1.62020493       0.00000000
