10
Lattice="16.28999089631971 0.0 0.0 0.0 16.28999089631971 0.0 0.0 0.0 34.53561885213415" Properties=species:S:1:pos:R:3:initial_magmoms:R:1 pbc="T T T"
Si      -1.49524281      -0.09231543      -1.79775264       0.00000000
Si       1.04368401       1.97873001      -0.70646101       0.00000000
Si       1.46546469      -1.81213218       0.37968481       0.00000000
Si      -1.53010341      -0.08720037       1.87552690       0.00000000
Si       1.61114616      -1.42993620       2.70603993       0.00000000
Si       0.12292434      -3.56850369      -0.39833405       0.00000000
Si       3.31354890       1.70277741      -0.11410575       0.00000000
Si       0.78323949       3.53934459       1.06960325       0.00000000
Si      -0.60347934      -1.65094263       3.46578943       0.00000000
Si      -3.70902123      -0.20325033      -1.27612637       0.00000000
