10
Lattice="16.28999089631971 0.0 0.0 0.0 16.28999089631971 0.0 0.0 0.0 34.53561885213415" Properties=species:S:1:pos:R:3:initial_magmoms:R:1 pbc="T T T"
Si       0.32615838       1.35928647       1.82634815       0.00000000
Si       1.83312999      -0.46291293      -1.36049693       0.00000000
Si      -0.97769322      -1.92744909       0.89557817       0.00000000
Si      -1.96794603       0.43640910      -1.30258066       0.00000000
Si      -1.09242369      -2.91288006      -1.25568127       0.00000000
Si      -2.74776462      -0.78855003       1.91382692       0.00000000
Si       1.12220181      -2.69187363      -2.01543077       0.00000000
Si      -1.69999182       0.98303634       3.00491134       0.00000000
Si      -2.01904776      -1.34913780      -2.84594380       0.00000000
Si       2.28421638       0.55527723       2.92416702       0.00000000
