10
Lattice="16.28999089631971 0.0 0.0 0.0 16.28999089631971 0.0 0.0 0.0 34.53561885213415" Properties=species:S:1:pos:R:3:initial_magmoms:R:1 pbc="T T T"
Si      -1.33333650      -1.35984033      -1.36947620       0.00000000
Si       1.42563564      -1.26934938       1.39589596       0.00000000
Si       1.38049605       1.35729344      -1.37244626       0.00000000
Si      -1.34921925       1.35297541       1.52675149       0.00000000
Si       0.54929880       2.16083170       2.83537589       0.00000000
Si       2.35783089       0.36224073       2.84480412       0.00000000
Si      -2.67722403       2.72494626       0.00935916       0.00000000
Si      -2.69147778      -0.00312768      -2.73104373       0.00000000
Si      -2.70240349      -2.72218932       0.02894086       0.00000000
Si       0.02441871       2.71283790      -2.73056023       0.00000000
