10
Lattice="16.28999089631971 0.0 0.0 0.0 16.28999089631971 0.0 0.0 0.0 34.53561885213415" Properties=species:S:1:pos:R:3:initial_magmoms:R:1 pbc="T T T"
Si       0.70905646      -0.15630744       2.21093702       0.00000000
Si      -2.24637212       0.76129360      -0.43352587       0.00000000
Si       1.32971360       2.08405300      -0.30885221       0.00000000
Si       0.35912934      -2.55301671      -0.36669941       0.00000000
Si       0.02157936      -1.34154570      -2.42889143       0.00000000
Si      -1.79795729       0.51367094      -2.70034155       0.00000000
Si       0.14942654       2.04699325       2.96560978       0.00000000
Si       3.09945920      -0.22409501       1.87124448       0.00000000
Si      -0.71066901      -1.87865958       3.09494575       0.00000000
Si      -2.75517398      -0.75153819       2.79866451       0.00000000
