10
Lattice="16.28999089631971 0.0 0.0 0.0 16.28999089631971 0.0 0.0 0.0 34.53561885213415" Properties=species:S:1:pos:R:3:initial_magmoms:R:1 pbc="T T T"
Si      -0.83052936       2.22730468       0.26568266       0.00000000
Si      -1.35837423      -1.15294104      -1.75106046       0.00000000
Si      -0.43552944      -0.80646903       2.35153160       0.00000000
Si       2.15469459       0.08353512      -1.48037013       0.00000000
Si       0.30732714       3.00398093       2.22558013       0.00000000
Si      -1.94437440       0.73480932       3.31234759       0.00000000
Si      -0.10484244       3.63880060      -1.64199692       0.00000000
Si      -3.22093211       2.29509225       0.60537520       0.00000000
Si      -3.57085922      -0.10161702      -1.97226122       0.00000000
Si      -2.20511214      -3.43308492      -1.09971833       0.00000000
