10
Lattice="16.28999089631971 0.0 0.0 0.0 16.28999089631971 0.0 0.0 0.0 34.53561885213415" Properties=species:S:1:pos:R:3:initial_magmoms:R:1 pbc="T T T"
Si      -2.00068893       0.97653663       0.63386710       0.00000000
Si       1.05956676       1.85779861      -0.97352510       0.00000000
Si      -0.70949466      -1.58786775      -1.67642895       0.00000000
Si       1.17315693      -0.41583483       2.13205762       0.00000000
Si       1.34718300      -1.76124222      -2.87129296       0.00000000
Si      -1.48932954       3.08329694       1.53169009       0.00000000
Si      -0.91505817      -3.60224028      -0.52200617       0.00000000
Si       0.37300842       3.73610240       0.24161132       0.00000000
Si       0.29919843       1.96502102      -3.24244746       0.00000000
Si      -3.15657846       1.81312654      -1.23095375       0.00000000
