10
Lattice="16.28999089631971 0.0 0.0 0.0 16.28999089631971 0.0 0.0 0.0 34.53561885213415" Properties=species:S:1:pos:R:3:initial_magmoms:R:1 pbc="T T T"
Si       1.97253981       1.28212074       0.30857593       0.00000000
Si      -1.60893072      -0.33658398       1.72153249       0.00000000
Si      -1.35793440       0.66650535      -1.86267964       0.00000000
Si       1.33126767      -2.00334420      -0.04482726       0.00000000
Si       2.54435139       0.18485892       2.35277488       0.00000000
Si      -2.94593247       1.57529187       1.33974101       0.00000000
Si       3.15152856       0.63643401      -1.69825547       0.00000000
Si       2.08047735      -2.15459685       2.18624404       0.00000000
Si      -0.02231730       2.02880547      -3.19644599       0.00000000
Si      -2.88342774       2.25621387      -0.96658344       0.00000000
