10
Lattice="16.28999089631971 0.0 0.0 0.0 16.28999089631971 0.0 0.0 0.0 34.53561885213415" Properties=species:S:1:pos:R:3:initial_magmoms:R:1 pbc="T T T"
Si       1.01647971      -2.15713809      -0.25086688       0.00000000
Si       2.15392896       1.11452922       0.16659992       0.00000000
Si      -1.53587007       0.29185164       1.95533876       0.00000000
Si      -0.68354469      -0.03461625      -2.42588683       0.00000000
Si       1.31181741       3.32204481      -0.26399042       0.00000000
Si      -0.11306889       1.51154910       3.38481514       0.00000000
Si       1.57032342      -3.01104360       1.92674325       0.00000000
Si      -2.02054644       1.87725960      -2.80767831       0.00000000
Si       3.46973742       0.48682665      -1.79464444       0.00000000
Si      -3.32048192       1.79237241       1.22611876       0.00000000
