10
Lattice="16.28999089631971 0.0 0.0 0.0 16.28999089631971 0.0 0.0 0.0 34.53561885213415" Properties=species:S:1:pos:R:3:initial_magmoms:R:1 pbc="T T T"
Si       1.35734796      -1.35679084      -1.35662894       0.00000000
Si      -1.35764118       1.35742941      -1.35635265       0.00000000
Si      -1.35944937      -1.35684134       1.35731965       0.00000000
Si       1.35718506       1.36018242       1.35849386       0.00000000
Si      -0.00228060       2.71573848       2.71128934       0.00000000
Si       0.00040725       2.71407690      -2.71429394       0.00000000
Si       2.71547784       0.00003258      -2.71311973       0.00000000
Si      -2.71544526       0.00060273      -2.71332695       0.00000000
Si      -2.71526607      -0.00099369       2.71384498       0.00000000
Si      -2.71467963       2.71502172       0.00041443       0.00000000
