10
Lattice="16.28999089631971 0.0 0.0 0.0 16.28999089631971 0.0 0.0 0.0 34.53561885213415" Properties=species:S:1:pos:R:3:initial_magmoms:R:1 pbc="T T T"
Si      -1.35581670       1.35584765       1.35652533       0.00000000
Si      -1.35617508      -1.35779797      -1.35707790       0.00000000
Si       1.35944937       1.35684134      -1.35731965       0.00000000
Si       1.35834165      -1.35652655       1.36277628       0.00000000
Si      -2.71246419       2.71259288       0.00069071       0.00000000
Si      -2.71288773      -0.00046915      -2.71408673       0.00000000
Si       0.00180819       2.71427075      -2.71367230       0.00000000
Si      -2.71422351      -2.71644777       0.00051803       0.00000000
Si      -2.70775638      -0.00532357       2.72289332       0.00000000
Si       2.71679733       0.00005050      -2.71394859       0.00000000
