10
Lattice="16.28999089631971 0.0 0.0 0.0 16.28999089631971 0.0 0.0 0.0 34.53561885213415" Properties=species:S:1:pos:R:3:initial_magmoms:R:1 pbc="T T T"
Si       2.19836645      -0.31687308       0.84360203       0.00000000
Si      -0.81507897       2.09626236       0.79100426       0.00000000
Si       0.22641797      -0.38605671      -2.38081782       0.00000000
Si      -1.99442610      -1.19382894       0.70632287       0.00000000
Si      -3.02652792      -1.13034681      -1.45008237       0.00000000
Si      -1.93653144       0.32856930      -2.95825369       0.00000000
Si      -0.75133620       2.08406115       3.22953113       0.00000000
Si       3.82337540       0.64938456      -0.56265462       0.00000000
Si      -2.90381535       2.77167834      -0.31810776       0.00000000
Si       3.19003649      -2.41527595       0.49617351       0.00000000
