10
Lattice="16.28999089631971 0.0 0.0 0.0 16.28999089631971 0.0 0.0 0.0 34.53561885213415" Properties=species:S:1:pos:R:3:initial_magmoms:R:1 pbc="T T T"
Si       0.42041232      -1.18245852       1.97937557       0.00000000
Si       1.12013298      -1.76901255      -1.07657945       0.00000000
Si       1.19361717       2.02693212       0.18082860       0.00000000
Si      -2.22053877       0.24475725      -0.80302266       0.00000000
Si       0.21434382       2.88328113       2.21162773       0.00000000
Si       2.68078014      -0.69931341       2.55211459       0.00000000
Si       1.02892527      -1.35876519      -3.36522165       0.00000000
Si      -0.06994926      -3.41659781       1.61647508       0.00000000
Si      -2.57538384      -1.50583131      -2.35515784       0.00000000
Si      -3.72783618       0.01729998       1.02201314       0.00000000
