10
Lattice="16.28999089631971 0.0 0.0 0.0 16.28999089631971 0.0 0.0 0.0 34.53561885213415" Properties=species:S:1:pos:R:3:initial_magmoms:R:1 pbc="T T T"
Si      -0.87908985      -0.66015225      -2.06730330       0.00000000
Si       1.77982911      -1.48838472       0.34791202       0.00000000
Si      -1.32335073      -0.97924077       1.70505899       0.00000000
Si       1.35643572       1.97677521       0.31562120       0.00000000
Si       2.07265815      -0.86167584       2.56634327       0.00000000
Si       0.74591910       0.30610539      -3.47355995       0.00000000
Si       0.11258019      -2.75855512      -2.41473182       0.00000000
Si       2.81971755       1.33835382       2.09044218       0.00000000
Si      -0.09848934      -0.62687178       3.70339462       0.00000000
Si       1.26846972      -3.59514503      -0.54991097       0.00000000
