10
Lattice="16.28999089631971 0.0 0.0 0.0 16.28999089631971 0.0 0.0 0.0 34.53561885213415" Properties=species:S:1:pos:R:3:initial_magmoms:R:1 pbc="T T T"
Si       1.75407462      -1.11449664       1.16526697       0.00000000
Si       0.02335986      -1.16776494      -2.12732624       0.00000000
Si       1.04858730       2.28283173      -0.51012591       0.00000000
Si      -1.43755992      -2.10976677       0.97663331       0.00000000
Si       0.80842383      -3.14447499       0.70832594       0.00000000
Si       1.23751872      -0.26547813       3.25919724       0.00000000
Si       0.83482992       0.54376020      -3.46889764       0.00000000
Si       2.46659922       1.56709800      -2.20617110       0.00000000
Si       1.53191160      -3.02990742      -1.78849709       0.00000000
Si      -3.15885906       1.46738691      -1.84399586       0.00000000
