10
Lattice="16.28999089631971 0.0 0.0 0.0 16.28999089631971 0.0 0.0 0.0 34.53561885213415" Properties=species:S:1:pos:R:3:initial_magmoms:R:1 pbc="T T T"
Si      -1.19361717      -2.02693212      -0.18082860       0.00000000
Si       2.36736054      -0.13357800       0.32066340       0.00000000
Si      -0.97927335       0.85634901       2.03079913       0.00000000
Si      -0.43209225       1.56074490      -1.86837802       0.00000000
Si       2.32642377       2.00687913       1.30869347       0.00000000
Si      -2.64279186       2.04361308      -1.19531297       0.00000000
Si      -2.49711039       2.42580906       1.13104215       0.00000000
Si      -0.77320485      -3.20939064       1.79854696       0.00000000
Si       3.25516554      -0.24858540      -1.86413014       0.00000000
Si       0.66634245       2.27390481       2.96277786       0.00000000
