10
Lattice="16.28999089631971 0.0 0.0 0.0 16.28999089631971 0.0 0.0 0.0 34.53561885213415" Properties=species:S:1:pos:R:3:initial_magmoms:R:1 pbc="T T T"
Si      -1.32804225       1.38893427       1.34988413       0.00000000
Si       1.40053275      -1.34819298       1.35485035       0.00000000
Si       1.09825551       1.77220539      -1.16941021       0.00000000
Si      -1.45406169      -1.26182340      -1.42782903       0.00000000
Si       2.17385163       0.41624208      -2.80583553       0.00000000
Si      -2.65878864       0.53253639      -2.52347215       0.00000000
Si      -2.64179817      -2.74530483      -0.02918607       0.00000000
Si      -2.66954004       0.02713914       2.72772140       0.00000000
Si       0.04883742      -2.69068446       2.73031157       0.00000000
Si      -2.57160456       2.83775058      -0.27094590       0.00000000
