10
Lattice="16.28999089631971 0.0 0.0 0.0 16.28999089631971 0.0 0.0 0.0 34.53561885213415" Properties=species:S:1:pos:R:3:initial_magmoms:R:1 pbc="T T T"
Si       1.35527913       1.35586557       1.35731965       0.00000000
Si       1.35801585      -1.35739683      -1.35666347       0.00000000
Si      -1.35596331      -1.35910728       1.35721604       0.00000000
Si      -1.35777150       1.35811359      -1.35704337       0.00000000
Si      -0.00195480      -2.71396287       2.71118574       0.00000000
Si       2.71427238      -0.00123804      -2.71394859       0.00000000
Si      -0.00008145       2.71450044      -2.71419034       0.00000000
Si      -2.71435383      -2.71467963       0.00031082       0.00000000
Si       2.71515204      -2.71420722       0.00020721       0.00000000
Si      -2.71459818       2.71534752       0.00069071       0.00000000
