10
Lattice="16.28999089631971 0.0 0.0 0.0 16.28999089631971 0.0 0.0 0.0 34.53561885213415" Properties=species:S:1:pos:R:3:initial_magmoms:R:1 pbc="T T T"
Si      -1.45279107      -1.06675065      -1.67349342       0.00000000
Si      -1.56968811       0.43021890       1.88212321       0.00000000
Si       1.49092596      -1.88266788       1.02449971       0.00000000
Si       1.11615822       1.68153525      -1.69124474       0.00000000
Si      -3.40638561      -0.96765858       1.23668667       0.00000000
Si      -2.71652040      -2.69811270      -0.30937025       0.00000000
Si       2.83125087       2.65196313      -0.37232871       0.00000000
Si      -0.13017339      -2.23878357      -3.21222878       0.00000000
Si       2.90893788      -2.59840161      -0.67154548       0.00000000
Si       1.96586091       2.93418738       1.97675086       0.00000000
