10
Lattice="16.28999089631971 0.0 0.0 0.0 16.28999089631971 0.0 0.0 0.0 34.53561885213415" Properties=species:S:1:pos:R:3:initial_magmoms:R:1 pbc="T T T"
Si       0.28463517      -2.30946588       0.23860672       0.00000000
Si      -2.16788949       0.07139907      -0.93819515       0.00000000
Si       0.33202278       0.99755073       2.13271380       0.00000000
Si       1.64675610       0.83828340      -1.52616439       0.00000000
Si      -1.67446539       1.93222206      -2.28021551       0.00000000
Si       0.51168519       2.90015757      -1.80030828       0.00000000
Si       1.94471649      -2.57649156      -1.41547767       0.00000000
Si       1.87238889      -0.50655384       3.16204849       0.00000000
Si       0.95930181      -2.58253515       2.48539174       0.00000000
Si       1.97250723      -0.88560585      -3.11767020       0.00000000
