10
Lattice="16.28999089631971 0.0 0.0 0.0 16.28999089631971 0.0 0.0 0.0 34.53561885213415" Properties=species:S:1:pos:R:3:initial_magmoms:R:1 pbc="T T T"
Si       0.45906849       1.73070661      -1.62061936       0.00000000
Si      -1.09758762      -1.69108023      -1.33773794       0.00000000
Si      -1.66948717       0.38220901       1.73659003       0.00000000
Si       2.23477623      -0.24629503       1.20594995       0.00000000
Si       0.23941413      -3.60295608      -0.95594646       0.00000000
Si      -3.50903609       1.48451584       0.36248606       0.00000000
Si      -0.26217126       1.30099271       3.66132162       0.00000000
Si       1.65582963      -0.21427214       3.53441174       0.00000000
Si      -1.03508289      -1.01015823      -3.64406240       0.00000000
Si      -0.76579290       1.37833762      -3.61895499       0.00000000
