10
Lattice="16.28999089631971 0.0 0.0 0.0 16.28999089631971 0.0 0.0 0.0 34.53561885213415" Properties=species:S:1:pos:R:3:initial_magmoms:R:1 pbc="T T T"
Si       2.04882588      -0.09203850      -1.21375500       0.00000000
Si      -1.95805800       0.80400924      -1.09781887       0.00000000
Si      -0.62467263      -2.17622997       0.77632661       0.00000000
Si       0.77542029       1.52559108       1.68637521       0.00000000
Si      -1.50008094      -1.30139181       2.82919401       0.00000000
Si       1.57947840       3.22915041       0.28319223       0.00000000
Si      -2.28421638      -0.55527723      -2.92416702       0.00000000
Si       3.10912569       2.05881165      -1.12990247       0.00000000
Si       1.71680310      -1.08958923      -3.34646880       0.00000000
Si       3.58919199      -1.59614307      -0.18442031       0.00000000
