10
Lattice="16.28999089631971 0.0 0.0 0.0 16.28999089631971 0.0 0.0 0.0 34.53561885213415" Properties=species:S:1:pos:R:3:initial_magmoms:R:1 pbc="T T T"
Si       1.45893240      -1.15801150       1.33868077       0.00000000
Si       1.73076363       0.97535886      -1.30819581       0.00000000
Si      -1.26442555       1.56710940       1.28890110       0.00000000
Si      -0.40458821      -2.10160126      -2.27345831       0.00000000
Si       0.32344772       0.05657517      -3.23292740       0.00000000
Si      -2.33464112      -2.32247737      -0.27665118       0.00000000
Si       0.09914746      -2.50683130       2.66985003       0.00000000
Si       2.80282482      -2.38242457      -0.11476193       0.00000000
Si      -2.62162205       0.21221472       2.66687997       0.00000000
Si       2.81507490       0.21370362       2.66777789       0.00000000
