10
Lattice="16.28999089631971 0.0 0.0 0.0 16.28999089631971 0.0 0.0 0.0 34.53561885213415" Properties=species:S:1:pos:R:3:initial_magmoms:R:1 pbc="T T T"
Si      -0.80405811      -1.70355933       1.40318298       0.00000000
Si       1.52964729      -1.17033876      -1.41309471       0.00000000
Si       0.51829893       1.87257038       1.40542779       0.00000000
Si      -1.71595602       0.92356155      -1.39827892       0.00000000
Si      -0.19091880       1.44433656      -3.06852599       0.00000000
Si      -1.57947840      -3.22915041      -0.28319223       0.00000000
Si      -0.28334826       3.60464210       0.03629696       0.00000000
Si       0.46934748      -3.32118891      -1.49694724       0.00000000
Si      -2.14048971      -0.49972833       3.01820756       0.00000000
Si       1.45182996      -0.14599098      -3.58089671       0.00000000
