10
Lattice="16.28999089631971 0.0 0.0 0.0 16.28999089631971 0.0 0.0 0.0 34.53561885213415" Properties=species:S:1:pos:R:3:initial_magmoms:R:1 pbc="T T T"
Si      -1.34638316      -1.34255664       1.38812889       0.00000000
Si       1.36770840       1.37192751       1.38705829       0.00000000
Si      -1.52154302       1.20202281      -1.45283487       0.00000000
Si       1.35459495      -1.38961845      -1.52086317       0.00000000
Si      -0.08358399       2.52845235      -2.86146208       0.00000000
Si      -2.71394233      -2.70205488       0.01263659       0.00000000
Si       2.72201013      -2.69482212       0.01155217       0.00000000
Si      -2.70647666       2.72536587       0.01190443       0.00000000
Si       2.71409319       2.72179836      -0.00095318       0.00000000
Si       0.00542457      -2.70282051       2.74910932       0.00000000
