10
Lattice="16.28999089631971 0.0 0.0 0.0 16.28999089631971 0.0 0.0 0.0 34.53561885213415" Properties=species:S:1:pos:R:3:initial_magmoms:R:1 pbc="T T T"
Si       0.84520665      -2.05426185      -0.71699438       0.00000000
Si       1.07805591      -0.05393619       2.10470540       0.00000000
Si       0.80529615       2.17642545      -1.20156392       0.00000000
Si      -2.42128044      -0.86294646       0.87813767       0.00000000
Si      -1.04457996      -2.93157121       0.54652647       0.00000000
Si      -3.11777568       1.20449889       0.00493860       0.00000000
Si       0.10798641       3.32887779       0.66833367       0.00000000
Si       0.99857700       2.27416545       2.56005778       0.00000000
Si      -2.39428791       1.31906646      -2.49188444       0.00000000
Si      -0.01194057      -1.51285230       3.61287671       0.00000000
