10
Lattice="16.28999089631971 0.0 0.0 0.0 16.28999089631971 0.0 0.0 0.0 34.53561885213415" Properties=species:S:1:pos:R:3:initial_magmoms:R:1 pbc="T T T"
Si       1.23223003      -1.75912193      -0.96803394       0.00000000
Si       1.47403390       1.83471989      -0.14425536       0.00000000
Si      -2.10975048       0.48111863      -1.03189033       0.00000000
Si      -0.17796825      -0.59836591       2.34997750       0.00000000
Si      -3.37044987       0.78758240       0.96312988       0.00000000
Si      -2.56880268      -0.94448931       2.33226072       0.00000000
Si       1.24305131       2.76683369       2.02613682       0.00000000
Si       3.42450728      -1.35889292      -0.19737117       0.00000000
Si       0.40373136      -1.77930524      -3.20794636       0.00000000
Si       0.66979593      -3.64161062       0.33827658       0.00000000
