10
Lattice="16.28999089631971 0.0 0.0 0.0 16.28999089631971 0.0 0.0 0.0 34.53561885213415" Properties=species:S:1:pos:R:3:initial_magmoms:R:1 pbc="T T T"
Si      -1.24234056       1.34092764       1.40546924       0.00000000
Si      -1.68997347      -0.94237650      -1.31104024       0.00000000
Si       0.75649131       1.61938890      -1.53726901       0.00000000
Si       1.46231587      -1.36508571       1.34988413       0.00000000
Si      -0.28183329      -0.40856949      -3.12580476       0.00000000
Si       2.65471518       2.53899198      -0.11558733       0.00000000
Si      -2.63230110       2.56445325       0.05899378       0.00000000
Si      -2.59952562      -0.00794952       2.73017688       0.00000000
Si      -0.90391581       3.40241085      -1.37940661       0.00000000
Si      -2.59586037      -2.76385588      -0.16011413       0.00000000
