10
Lattice="16.28999089631971 0.0 0.0 0.0 16.28999089631971 0.0 0.0 0.0 34.53561885213415" Properties=species:S:1:pos:R:3:initial_magmoms:R:1 pbc="T T T"
Si      -2.28011130      -0.09440055      -0.20645404       0.00000000
Si       0.69730974      -1.15245234      -1.86989759       0.00000000
Si       0.89059059      -1.05471234       1.89172412       0.00000000
Si       0.99129537       2.21084622      -0.34632338       0.00000000
Si      -0.10798641      -3.32887779      -0.66833367       0.00000000
Si      -2.79666720       0.75461796       1.88747623       0.00000000
Si       2.72842254       0.42922521       2.08346598       0.00000000
Si       3.01118274      -0.57555828      -1.76477111       0.00000000
Si      -0.02016702       0.65868615      -3.49511019       0.00000000
Si      -1.05249690       3.53616804      -0.41598176       0.00000000
