10
Lattice="16.28999089631971 0.0 0.0 0.0 16.28999089631971 0.0 0.0 0.0 34.53561885213415" Properties=species:S:1:pos:R:3:initial_magmoms:R:1 pbc="T T T"
Si       0.58650516      -1.39220856      -1.80272578       0.00000000
Si       1.70968437       1.37526696       0.86280385       0.00000000
Si      -2.34624870       0.67186476      -0.33216377       0.00000000
Si       0.32107590      -2.75566527       0.22109716       0.00000000
Si      -0.48185820      -0.37551708       3.15282748       0.00000000
Si      -0.93962349      -2.44920150       2.21611736       0.00000000
Si      -1.67386266      -1.87535367      -2.37546480       0.00000000
Si       0.44035128       3.33487251       1.03555111       0.00000000
Si       1.63786176       0.63166104       3.06410542       0.00000000
Si      -3.15560106      -1.52995680      -0.55277742       0.00000000
