10
Lattice="16.28999089631971 0.0 0.0 0.0 16.28999089631971 0.0 0.0 0.0 34.53561885213415" Properties=species:S:1:pos:R:3:initial_magmoms:R:1 pbc="T T T"
Si      -0.75649131      -1.61938890       1.53726901       0.00000000
Si      -1.66040712       1.78302195       0.15786240       0.00000000
Si       1.89822387       0.91960308       1.42168169       0.00000000
Si      -1.03832460      -2.02795839      -1.58853575       0.00000000
Si      -2.44646478      -2.56176540       0.22622878       0.00000000
Si      -1.99883187      -0.27846126       2.94273825       0.00000000
Si      -3.08027610       1.03935087      -1.74135595       0.00000000
Si       0.71329023       2.44294614       2.88642099       0.00000000
Si      -3.38879241       0.94506435       1.59626279       0.00000000
Si       3.33618290       2.24603262       0.01305447       0.00000000
