10
Lattice="16.28999089631971 0.0 0.0 0.0 16.28999089631971 0.0 0.0 0.0 34.53561885213415" Properties=species:S:1:pos:R:3:initial_magmoms:R:1 pbc="T T T"
Si       1.66589685       0.99434160      -1.42473322       0.00000000
Si      -0.94123620      -1.80858096      -1.36232732       0.00000000
Si       1.86784398      -0.18585261       1.61364316       0.00000000
Si      -1.27456218       2.28955950       0.70804965       0.00000000
Si      -2.79743120      -1.18799712       1.49345914       0.00000000
Si       0.47513043      -0.00244350       3.49697511       0.00000000
Si      -3.25745266       1.08530496       0.92331029       0.00000000
Si      -2.28863260      -0.38918439      -2.83399447       0.00000000
Si       0.43002342       2.35745622      -2.85530296       0.00000000
Si       3.28833198       1.87504416       0.04251337       0.00000000
