10
Lattice="16.28999089631971 0.0 0.0 0.0 16.28999089631971 0.0 0.0 0.0 34.53561885213415" Properties=species:S:1:pos:R:3:initial_magmoms:R:1 pbc="T T T"
Si      -0.85688658      -2.24894853       0.21367199       0.00000000
Si      -1.76700888       0.70548732       1.62106832       0.00000000
Si       2.20416732       0.65003616       1.23188621       0.00000000
Si       0.32246055       0.39980547      -2.62111679       0.00000000
Si      -2.31505335       2.33466651      -0.29994202       0.00000000
Si      -1.44966339       2.05244226      -2.64902159       0.00000000
Si       1.18690569      -3.57427035       0.28333038       0.00000000
Si      -2.78998830      -2.48218875      -1.25219317       0.00000000
Si       3.53833202       1.80742437      -0.68884784       0.00000000
Si      -1.55224152      -2.89937565       2.43431353       0.00000000
