10
Lattice="16.28999089631971 0.0 0.0 0.0 16.28999089631971 0.0 0.0 0.0 34.53561885213415" Properties=species:S:1:pos:R:3:initial_magmoms:R:1 pbc="T T T"
Si      -1.88300997      -1.05117741       0.98450744       0.00000000
Si      -0.06791301       1.16968716      -2.06250285       0.00000000
Si       0.89049678      -2.09074005      -0.77511786       0.00000000
Si       0.91684748       1.67423733       1.57803691       0.00000000
Si      -0.17518266      -2.61594594       2.36392990       0.00000000
Si       2.70145934       0.17371656       2.30725691       0.00000000
Si       2.21678297       1.75912452      -2.45576016       0.00000000
Si      -3.31454259      -1.75650183      -0.87147229       0.00000000
Si      -2.95860609       0.30478590       2.62093276       0.00000000
Si      -1.01320542       1.45336122       3.57484404       0.00000000
