10
Lattice="16.28999089631971 0.0 0.0 0.0 16.28999089631971 0.0 0.0 0.0 34.53561885213415" Properties=species:S:1:pos:R:3:initial_magmoms:R:1 pbc="T T T"
Si       1.38810348      -1.80204867      -0.56168762       0.00000000
Si       0.61647876       1.37860641       1.79150169       0.00000000
Si      -2.20758170      -0.65754585       0.52314585       0.00000000
Si      -0.64506771       1.75365108      -1.44852827       0.00000000
Si      -2.79570772       1.45720566      -0.37353746       0.00000000
Si       1.60594965       3.11228595       0.63331453       0.00000000
Si      -0.66238398       0.76053123      -3.57098498       0.00000000
Si       2.50118289      -1.20068703      -2.55204552       0.00000000
Si      -2.31985401      -1.08608688       2.87616248       0.00000000
Si       0.03166776      -3.77882388      -0.87730882       0.00000000
