10
Lattice="16.28999089631971 0.0 0.0 0.0 16.28999089631971 0.0 0.0 0.0 34.53561885213415" Properties=species:S:1:pos:R:3:initial_magmoms:R:1 pbc="T T T"
Si       1.35571764       1.35777150       1.35769954       0.00000000
Si       1.35707948      -1.35705474      -1.35728512       0.00000000
Si      -1.35791359      -1.35731538       1.35697429       0.00000000
Si      -1.35804391       1.35741312      -1.35714697       0.00000000
Si      -0.00033757      -2.71059084       2.71505373       0.00000000
Si       0.00047880       2.71450044      -2.71394859       0.00000000
Si       2.71441441       0.00006516      -2.71425941       0.00000000
Si       2.71446328      -2.71482624       0.00027629       0.00000000
Si       0.00232204       2.71254564       2.71684958       0.00000000
Si      -0.00181996      -2.71502172      -2.71453569       0.00000000
