10
Lattice="16.28999089631971 0.0 0.0 0.0 16.28999089631971 0.0 0.0 0.0 34.53561885213415" Properties=species:S:1:pos:R:3:initial_magmoms:R:1 pbc="T T T"
Si       2.21377842       0.11093490      -0.52162628       0.00000000
Si       0.17560620      -2.23637265      -0.66598525       0.00000000
Si      -0.09609471       0.11359017       2.36527679       0.00000000
Si      -1.39966938       1.41470505      -1.35068881       0.00000000
Si      -2.83167604       1.76353911       0.63473049       0.00000000
Si      -1.24888914       2.19928032       2.47772482       0.00000000
Si       1.45994238      -3.23788185       1.01759258       0.00000000
Si       2.29894254       1.37156913      -2.57439007       0.00000000
Si      -1.57408641       0.05563035      -3.45491071       0.00000000
Si       2.17891782       0.11604996       3.15165327       0.00000000
