10
Lattice="16.28999089631971 0.0 0.0 0.0 16.28999089631971 0.0 0.0 0.0 34.53561885213415" Properties=species:S:1:pos:R:3:initial_magmoms:R:1 pbc="T T T"
Si      -0.01731627      -0.99311985      -2.12245671       0.00000000
Si       0.64506771      -1.75365108       1.44852827       0.00000000
Si       1.07986410       2.11962222       0.22997281       0.00000000
Si      -2.15064001      -0.29644542       1.07499081       0.00000000
Si       2.25101736       1.35863487       2.08184280       0.00000000
Si      -3.24069092      -0.25443351      -1.02449971       0.00000000
Si      -1.56251399      -2.41119693       1.97167412       0.00000000
Si       1.26154647      -0.37504467       3.24002996       0.00000000
Si       0.70472169       0.79558731      -3.46430440       0.00000000
Si      -2.13730990      -1.81394037      -2.37722612       0.00000000
