10
Lattice="16.28999089631971 0.0 0.0 0.0 16.28999089631971 0.0 0.0 0.0 34.53561885213415" Properties=species:S:1:pos:R:3:initial_magmoms:R:1 pbc="T T T"
Si      -1.64563928      -0.31169286      -1.76501286       0.00000000
Si       1.21334436      -1.72682145       1.28714323       0.00000000
Si       2.18499399      -0.02467935      -1.25640652       0.00000000
Si      -1.64920679       1.37376828       1.38477548       0.00000000
Si      -0.58352735       1.89897417      -1.75427228       0.00000000
Si       2.56386681      -0.28100250       2.64711319       0.00000000
Si       1.32841692      -0.36830061      -3.43525993       0.00000000
Si      -0.02741118       2.55156786       2.77190772       0.00000000
Si      -2.86598834      -0.27999252       2.72392045       0.00000000
Si      -0.71878648      -1.51356906      -3.62479151       0.00000000
