10
Lattice="16.28999089631971 0.0 0.0 0.0 16.28999089631971 0.0 0.0 0.0 34.53561885213415" Properties=species:S:1:pos:R:3:initial_magmoms:R:1 pbc="T T T"
Si      -1.35808574      -1.35742941      -1.35638719       0.00000000
Si       1.35779919       1.35765019      -1.35673254       0.00000000
Si      -1.35768583       1.35622395       1.36222371       0.00000000
Si       1.35814128      -1.35671265       1.36156753       0.00000000
Si      -2.71280206      -0.01368360       2.70479664       0.00000000
Si       2.69147778       0.00312768       2.73104373       0.00000000
Si       0.00011240       2.71452229      -2.71374137       0.00000000
Si       2.71488651      -0.00070047      -2.71381045       0.00000000
Si       0.00015150      -2.71494027      -2.71422487       0.00000000
Si      -2.71514782       2.71434310       0.00010361       0.00000000
