10
Lattice="16.28999089631971 0.0 0.0 0.0 16.28999089631971 0.0 0.0 0.0 34.53561885213415" Properties=species:S:1:pos:R:3:initial_magmoms:R:1 pbc="T T T"
Si       1.33333650       1.35984033       1.36947620       0.00000000
Si       1.35581670      -1.35931905      -1.36108404       0.00000000
Si      -1.35814128       1.35671265      -1.36156753       0.00000000
Si      -1.36906699      -1.36234899       1.39841706       0.00000000
Si       2.71388142      -2.71422351      -0.00013814       0.00000000
Si      -2.71582712       2.71293660       0.00065618       0.00000000
Si       2.71383255       2.71713377      -0.00297006       0.00000000
Si      -2.71321638      -2.71852407      -0.00162317       0.00000000
Si       2.71399545      -0.00066789      -2.71847276       0.00000000
Si      -0.00034209       2.71436284      -2.71830008       0.00000000
