10
Lattice="16.28999089631971 0.0 0.0 0.0 16.28999089631971 0.0 0.0 0.0 34.53561885213415" Properties=species:S:1:pos:R:3:initial_magmoms:R:1 pbc="T T T"
Si       1.33561710       1.36230012      -1.33376635       0.00000000
Si      -1.52549334       1.58970852       0.89609620       0.00000000
Si       1.35793440      -0.66650535       1.86267964       0.00000000
Si      -1.15535196      -1.95318729      -0.78509866       0.00000000
Si      -1.58799807       0.90878652       3.20242065       0.00000000
Si      -0.25099632      -1.00308933       3.58421213       0.00000000
Si      -2.68603041      -2.41644231       1.02933470       0.00000000
Si       0.47027601      -3.68044857      -1.12510202       0.00000000
Si       0.17972757       2.19889003      -3.19858720       0.00000000
Si       3.33630603       0.38576349      -1.96763345       0.00000000
