10
Lattice="16.28999089631971 0.0 0.0 0.0 16.28999089631971 0.0 0.0 0.0 34.40785480372833" Properties=species:S:1:pos:R:3:initial_magmoms:R:1 pbc="T T T"
Si      -1.33870894      -1.37482617       1.37948393       0.00000000
Si       1.36972836       1.35096065       1.37655926       0.00000000
Si       1.33711578      -1.33792932      -1.45111424       0.00000000
Si      -1.50075697       1.35074562      -1.41856439       0.00000000
Si      -2.70939257       2.70097159       0.04292038       0.00000000
Si      -2.69287451      -2.72438751      -0.00953786       0.00000000
Si       2.72012049       2.70778082      -0.01873165       0.00000000
Si      -2.70190703      -0.01167842       2.74041857       0.00000000
Si       0.01195686       2.70284494       2.74083146       0.00000000
Si       2.72380203      -2.72308431       0.02131912       0.00000000
