10
Lattice="16.28999089631971 0.0 0.0 0.0 16.28999089631971 0.0 0.0 0.0 34.40785480372833" Properties=species:S:1:pos:R:3:initial_magmoms:R:1 pbc="T T T"
Si      -2.11495581      -0.10446777       0.96056462       0.00000000
Si       1.29992408      -1.06020207       1.64411144       0.00000000
Si      -0.05626729      -1.00471833      -2.12520234       0.00000000
Si       0.07544225       2.30466752      -0.56315367       0.00000000
Si      -3.41172126       0.10914300      -1.04424457       0.00000000
Si       3.17276909       0.34471269       1.69011477       0.00000000
Si      -2.35036260      -1.36620972      -2.48662265       0.00000000
Si       0.33848828       0.75318837      -3.68312206       0.00000000
Si       1.41748901       2.53396556      -2.50275994       0.00000000
Si       0.40811174      -0.50380083       3.82199224       0.00000000
