10
Lattice="16.28999089631971 0.0 0.0 0.0 16.28999089631971 0.0 0.0 0.0 34.40785480372833" Properties=species:S:1:pos:R:3:initial_magmoms:R:1 pbc="T T T"
Si       0.17251110       2.04391349      -1.10407986       0.00000000
Si       0.08490348      -1.45598391      -1.82464956       0.00000000
Si       1.61745039      -0.88252704       1.44860590       0.00000000
Si      -1.76985963      -0.10533114       1.58534280       0.00000000
Si      -0.30652893      -1.60762752       2.60987165       0.00000000
Si      -1.38153861       1.50046768      -2.80107621       0.00000000
Si      -1.84671585      -0.81969651      -2.97789827       0.00000000
Si       2.58308901       0.87552953       2.62071013       0.00000000
Si      -2.13599693       2.29613156       2.17502494       0.00000000
Si       2.41030098       2.33742671      -1.91596806       0.00000000
