10
Lattice="16.28999089631971 0.0 0.0 0.0 16.28999089631971 0.0 0.0 0.0 34.40785480372833" Properties=species:S:1:pos:R:3:initial_magmoms:R:1 pbc="T T T"
Si       0.88519860       1.71122540      -1.28881574       0.00000000
Si      -0.76084074       0.90382784       2.02359589       0.00000000
Si      -1.80097353      -0.96298905      -1.35092195       0.00000000
Si       1.74431691      -1.74104003       0.27460924       0.00000000
Si       2.18287629       0.31015508      -2.65749215       0.00000000
Si      -1.30261356      -1.25426225       3.03474008       0.00000000
Si      -0.55244277      -2.41637456      -2.67824010       0.00000000
Si       0.80845641      -3.60487667      -1.12727077       0.00000000
Si       1.72002852       3.48188324      -0.01218039       0.00000000
Si      -2.80851003       2.08648184       1.73157626       0.00000000
