10
Lattice="16.28999089631971 0.0 0.0 0.0 16.28999089631971 0.0 0.0 0.0 34.40785480372833" Properties=species:S:1:pos:R:3:initial_magmoms:R:1 pbc="T T T"
Si       0.91724103       2.04137483      -0.68086301       0.00000000
Si       0.19025091      -1.63737047      -1.73611810       0.00000000
Si       0.86314194      -0.98104049       2.02820654       0.00000000
Si      -2.20773483       0.96377504      -0.22578447       0.00000000
Si      -0.89103042       3.22626056       0.15390642       0.00000000
Si       1.21266018      -3.19029617       1.22660630       0.00000000
Si      -3.28673556      -0.81700214      -1.40614659       0.00000000
Si      -1.67567085      -1.28086382      -3.13934002       0.00000000
Si      -0.13740615      -3.74837528      -0.66902670       0.00000000
Si       0.45022302       2.47283177      -2.98020360       0.00000000
