10
Lattice="16.28999089631971 0.0 0.0 0.0 16.28999089631971 0.0 0.0 0.0 34.40785480372833" Properties=species:S:1:pos:R:3:initial_magmoms:R:1 pbc="T T T"
Si      -2.09178261      -0.63066735      -0.86119468       0.00000000
Si       1.06595244      -2.05206759       0.53721014       0.00000000
Si       0.96332544       1.39846392      -1.67741827       0.00000000
Si       0.20999439       1.04138712       2.17299488       0.00000000
Si       3.30380748      -1.32152625       0.56167414       0.00000000
Si      -0.08244369      -2.65727530       2.57893897       0.00000000
Si       2.48746671       1.71857871       2.29252783       0.00000000
Si       0.31091094       3.61804158      -1.10356374       0.00000000
Si      -0.23636790      -0.62915238       3.82777276       0.00000000
Si      -3.90005406       0.55421838      -0.02642525       0.00000000
