10
Lattice="16.28999089631971 0.0 0.0 0.0 16.28999089631971 0.0 0.0 0.0 34.40785480372833" Properties=species:S:1:pos:R:3:initial_magmoms:R:1 pbc="T T T"
Si      -0.15392421       2.02812292       1.24883379       0.00000000
Si       0.93123414      -1.06075951       1.92546463       0.00000000
Si      -2.06343801      -0.99580737      -0.73106410       0.00000000
Si       1.14839613       0.60520771      -2.04172884       0.00000000
Si       2.99485134       0.12613347       1.92887101       0.00000000
Si       0.08244369       2.65727530      -2.57893897       0.00000000
Si       0.29243808       3.69866242      -0.40594410       0.00000000
Si      -3.37903470      -1.24024471       1.20781960       0.00000000
Si       1.85404635       1.99256185       2.69200325       0.00000000
Si      -2.28871242       2.06291836       2.34097412       0.00000000
