10
Lattice="16.28999089631971 0.0 0.0 0.0 16.28999089631971 0.0 0.0 0.0 34.40785480372833" Properties=species:S:1:pos:R:3:initial_magmoms:R:1 pbc="T T T"
Si       1.46320038       1.30535028       1.38610542       0.00000000
Si      -1.14727212      -1.45150742       1.59106624       0.00000000
Si       1.90913913      -0.88713711      -1.30433369       0.00000000
Si      -2.31907698       0.31863240      -1.00519163       0.00000000
Si      -1.75415607      -2.05631928      -1.40583692       0.00000000
Si       0.25309773      -1.87258274      -2.71918547       0.00000000
Si       0.81497241       0.29014119      -3.61220743       0.00000000
Si      -2.55342492      -0.03564252       2.90371287       0.00000000
Si       2.74844880       2.77017966      -0.24928505       0.00000000
Si      -1.92028149      -3.41817047       0.45114507       0.00000000
