10
Lattice="16.28999089631971 0.0 0.0 0.0 16.28999089631971 0.0 0.0 0.0 34.40785480372833" Properties=species:S:1:pos:R:3:initial_magmoms:R:1 pbc="T T T"
Si      -1.86437421       0.34762860       1.34493498       0.00000000
Si       0.04180014      -2.10211047      -0.99390585       0.00000000
Si       1.99313037       0.06872751       1.32790308       0.00000000
Si      -0.53704872       1.43716896      -1.87533236       0.00000000
Si       2.19423042      -1.49714874      -1.97208730       0.00000000
Si      -1.19930238       2.38280346       2.21593590       0.00000000
Si      -3.60287559       0.18358830      -0.24746143       0.00000000
Si       3.42549378      -1.22189661       0.01211157       0.00000000
Si       2.28923370       2.40929100       1.49395548       0.00000000
Si      -2.84636799       1.39979970      -2.15001042       0.00000000
