10
Lattice="16.28999089631971 0.0 0.0 0.0 16.28999089631971 0.0 0.0 0.0 34.40785480372833" Properties=species:S:1:pos:R:3:initial_magmoms:R:1 pbc="T T T"
Si      -0.59927652      -2.26787751       0.73227323       0.00000000
Si      -1.82666286       1.60194231       0.43652379       0.00000000
Si       1.98584874       0.73891440       1.28076227       0.00000000
Si      -0.40241187       0.41438502      -2.50785231       0.00000000
Si       0.79084692      -3.14429580      -1.12692669       0.00000000
Si       0.59122926       1.94088834       2.81740760       0.00000000
Si      -2.12380875      -0.81813267       2.83707858       0.00000000
Si       0.31214898      -1.81172493      -3.17822092       0.00000000
Si      -0.70569909       3.38146191       1.51619127       0.00000000
Si      -3.57029233       0.43976484       1.57260986       0.00000000
