10
Lattice="16.28999089631971 0.0 0.0 0.0 16.28999089631971 0.0 0.0 0.0 34.40785480372833" Properties=species:S:1:pos:R:3:initial_magmoms:R:1 pbc="T T T"
Si      -1.35679410       1.35609363      -1.36031530       0.00000000
Si       1.35897696      -1.35887922      -1.36079701       0.00000000
Si      -1.37546244      -1.33188669       1.37800095       0.00000000
Si       1.35270531       1.35048987       1.38639647       0.00000000
Si      -2.71524978       2.71169094      -0.00058493       0.00000000
Si      -2.71621089      -2.71415835       0.00065375       0.00000000
Si       0.00120546       2.71321830      -2.71749948       0.00000000
Si       2.71622718       2.71497475      -0.00034408       0.00000000
Si      -2.71417464      -0.00188964      -2.71801560       0.00000000
Si       2.71650411      -2.71606428       0.00306230       0.00000000
