10
Lattice="16.28999089631971 0.0 0.0 0.0 16.28999089631971 0.0 0.0 0.0 34.40785480372833" Properties=species:S:1:pos:R:3:initial_magmoms:R:1 pbc="T T T"
Si      -1.35454608       1.35311256       1.35608313       0.00000000
Si      -1.35609363      -1.35816246      -1.35656484       0.00000000
Si       1.35865116       1.35615879      -1.35673688       0.00000000
Si       1.35661491      -1.35610992       1.36193247       0.00000000
Si      -2.69605690      -0.00219915       2.71505652       0.00000000
Si       0.00995319       2.70635544       2.71739626       0.00000000
Si      -2.71117891       2.71353933       0.00075697       0.00000000
Si       0.00120546       2.71360449      -2.71368021       0.00000000
Si      -2.71329009      -0.00122175      -2.71402429       0.00000000
Si       2.71614573      -0.00099369      -2.71381784       0.00000000
