10
Lattice="16.28999089631971 0.0 0.0 0.0 16.28999089631971 0.0 0.0 0.0 34.40785480372833" Properties=species:S:1:pos:R:3:initial_magmoms:R:1 pbc="T T T"
Si      -1.35777150       1.35188429       1.36427221       0.00000000
Si       1.36190916      -1.36454465       1.36372168       0.00000000
Si      -1.36972836      -1.35096065      -1.37655926       0.00000000
Si       1.35039213       1.35682016      -1.39529090       0.00000000
Si      -2.70713084       2.70734261       0.00433539       0.00000000
Si       2.71409319       2.71441247      -0.00003441       0.00000000
Si       0.00221544       2.70986756       2.72080264       0.00000000
Si      -2.71250817      -0.00559562       2.72159402       0.00000000
Si      -2.70843730      -2.72578682       0.00292467       0.00000000
Si       2.71560816      -2.71997129       0.00502355       0.00000000
