10
Lattice="16.28999089631971 0.0 0.0 0.0 16.28999089631971 0.0 0.0 0.0 34.40785480372833" Properties=species:S:1:pos:R:3:initial_magmoms:R:1 pbc="T T T"
Si      -1.24853076       1.45338551       1.32731815       0.00000000
Si       1.34762283       1.36338393      -1.35670247       0.00000000
Si      -1.36449927      -1.35324288      -1.36131313       0.00000000
Si       1.36089918      -1.18850211       1.55096933       0.00000000
Si       0.55244277       2.41637456       2.67824010       0.00000000
Si      -2.67148832       0.15767091       2.63822374       0.00000000
Si       2.68741017      -2.68019370       0.02188341       0.00000000
Si       2.29675968       0.67533453       2.95284934       0.00000000
Si      -2.70601009      -2.70855459      -0.00233974       0.00000000
Si       2.70607851       0.00778662      -2.71643284       0.00000000
