10
Lattice="16.28999089631971 0.0 0.0 0.0 16.28999089631971 0.0 0.0 0.0 34.40785480372833" Properties=species:S:1:pos:R:3:initial_magmoms:R:1 pbc="T T T"
Si       2.28753954       0.55042281       0.37294695       0.00000000
Si      -0.59267907       0.65886534      -2.41949289       0.00000000
Si      -1.77368778       0.78913647       1.74385987       0.00000000
Si       1.49392332      -2.33772903      -0.79795301       0.00000000
Si      -0.66808548      -2.78295102       1.60385423       0.00000000
Si      -2.10134484      -1.32186834       2.81095127       0.00000000
Si      -3.63960954       1.14564312       0.34063795       0.00000000
Si       2.45581524       1.09529073       2.84659783       0.00000000
Si       3.16394154       1.75330152      -1.73787290       0.00000000
Si       1.46531808      -2.79676494       2.67008543       0.00000000
