10
Lattice="16.28999089631971 0.0 0.0 0.0 16.28999089631971 0.0 0.0 0.0 34.40785480372833" Properties=species:S:1:pos:R:3:initial_magmoms:R:1 pbc="T T T"
Si      -1.55313747       1.29652110      -1.13580392       0.00000000
Si       0.85760334      -2.10995315      -0.55919677       0.00000000
Si      -1.44187677      -0.63830247       1.74950276       0.00000000
Si       1.94792562       1.19320992       0.57395775       0.00000000
Si       0.11217294      -0.09485667       3.44649911       0.00000000
Si       2.34996282       0.19865655       2.63461091       0.00000000
Si      -2.23972350      -0.14999832      -2.81246522       0.00000000
Si      -1.01524167      -3.51486791      -0.60520010       0.00000000
Si      -0.44010693       2.92719897      -2.30587809       0.00000000
Si       2.17320003      -1.86551581      -2.49808047       0.00000000
