10
Lattice="16.28999089631971 0.0 0.0 0.0 16.28999089631971 0.0 0.0 0.0 34.40785480372833" Properties=species:S:1:pos:R:3:initial_magmoms:R:1 pbc="T T T"
Si      -1.33213104      -1.36641449      -1.36243138       0.00000000
Si      -1.35485559       1.35559027       1.35677129       0.00000000
Si       1.36001952      -1.35618979       1.35804438       0.00000000
Si       1.34382726       1.36749826      -1.37776697       0.00000000
Si       2.65880493      -0.07650761      -2.69017963       0.00000000
Si      -2.67486687      -0.05387266      -2.71481911       0.00000000
Si      -2.71396287       0.00001629       2.71464363       0.00000000
Si       0.00149868      -2.71523905       2.71471245       0.00000000
Si       0.00120546       2.71520254       2.71495330       0.00000000
Si      -2.71580364      -2.71479922      -0.00185803       0.00000000
