10
Lattice="16.28999089631971 0.0 0.0 0.0 16.28999089631971 0.0 0.0 0.0 34.40785480372833" Properties=species:S:1:pos:R:3:initial_magmoms:R:1 pbc="T T T"
Si       0.65663361      -2.17300455      -0.75040132       0.00000000
Si      -2.25255514      -0.28619901       0.87110415       0.00000000
Si       0.11137473       1.65815910      -1.77678821       0.00000000
Si       2.02359267       0.36613404       1.32373973       0.00000000
Si       1.30903182       2.59224399       1.99410834       0.00000000
Si      -1.65187442      -1.92078648       2.52870348       0.00000000
Si       3.74909463      -0.05900238      -0.30395916       0.00000000
Si      -0.89741610      -2.71645035      -2.44739767       0.00000000
Si       2.89442349      -1.87949133      -1.56228952       0.00000000
Si      -0.97977834       3.40560369       1.45424880       0.00000000
