10
Lattice="16.28999089631971 0.0 0.0 0.0 16.28999089631971 0.0 0.0 0.0 34.40785480372833" Properties=species:S:1:pos:R:3:initial_magmoms:R:1 pbc="T T T"
Si      -1.35799956      -1.35712467       1.35718418       0.00000000
Si       1.35736425      -1.35725499      -1.35790675       0.00000000
Si       1.35700587       1.35871222       1.35684010       0.00000000
Si      -1.35809730       1.35800035      -1.35797556       0.00000000
Si      -0.00035838       2.70982763       2.71708659       0.00000000
Si      -0.00017919      -2.71326717      -2.71584791       0.00000000
Si       2.71469592      -2.71461924      -0.00044730       0.00000000
Si      -2.71533123       2.71399787      -0.00141072       0.00000000
Si      -2.71363707      -0.00138851      -2.71577909       0.00000000
Si       0.00100998       2.71357433      -2.71584791       0.00000000
