10
Lattice="16.28999089631971 0.0 0.0 0.0 16.28999089631971 0.0 0.0 0.0 34.40785480372833" Properties=species:S:1:pos:R:3:initial_magmoms:R:1 pbc="T T T"
Si       1.35485559      -1.35559027      -1.35677129       0.00000000
Si      -1.35910728      -1.35557398       1.35787234       0.00000000
Si       1.35606105       1.35961227       1.35818201       0.00000000
Si      -1.36246302       1.36399428      -1.36368727       0.00000000
Si       2.71487511      -2.71178006       0.00127309       0.00000000
Si      -0.00100998      -2.71357433       2.71584791       0.00000000
Si      -2.71464705      -2.71496284       0.00006882       0.00000000
Si       2.71427238       0.00071676       2.71550383       0.00000000
Si      -2.71634121       0.00042354       2.71443718       0.00000000
Si       2.71441899       2.71653669      -0.00003441       0.00000000
