10
Lattice="16.28999089631971 0.0 0.0 0.0 16.28999089631971 0.0 0.0 0.0 34.40785480372833" Properties=species:S:1:pos:R:3:initial_magmoms:R:1 pbc="T T T"
Si      -1.35663120      -1.35900954      -1.35866372       0.00000000
Si       1.35804843       1.35762489      -1.35907662       0.00000000
Si      -1.35772263       1.35873261       1.35852609       0.00000000
Si       1.35656604      -1.36129014       1.35959273       0.00000000
Si       2.71601541       2.71226871      -0.00406013       0.00000000
Si      -2.71490769      -2.71458841      -0.00147954       0.00000000
Si       2.71709055      -2.71265641      -0.00113546       0.00000000
Si       2.71480995      -0.00100998      -2.71591672       0.00000000
Si      -2.71484253      -0.00011403      -2.71598554       0.00000000
Si      -0.00013032       2.71463076      -2.71650165       0.00000000
