10
Lattice="16.28999089631971 0.0 0.0 0.0 16.28999089631971 0.0 0.0 0.0 34.40785480372833" Properties=species:S:1:pos:R:3:initial_magmoms:R:1 pbc="T T T"
Si      -0.93846690      -2.18948840      -0.51746002       0.00000000
Si       1.80265140       0.95584833      -1.41302816       0.00000000
Si       1.28128995       0.57818097       2.06488534       0.00000000
Si      -0.03212388       0.27464940      -2.75651801       0.00000000
Si       3.43489311       1.33501437       1.21081309       0.00000000
Si       0.88242930      -3.65688413      -1.26693233       0.00000000
Si       0.27622953       2.47489083       3.18451756       0.00000000
Si       1.29907863      -1.23973253       3.65779786       0.00000000
Si       3.73456395      -0.69481737      -1.62787093       0.00000000
Si      -1.81486890      -3.39236711       1.59335983       0.00000000
