10
Lattice="16.28999089631971 0.0 0.0 0.0 16.28999089631971 0.0 0.0 0.0 34.40785480372833" Properties=species:S:1:pos:R:3:initial_magmoms:R:1 pbc="T T T"
Si      -0.83084701      -1.84101109       1.28483960       0.00000000
Si      -0.52978664      -1.08405063      -2.07056264       0.00000000
Si       2.23425495       0.74671731       0.63496776       0.00000000
Si      -1.77732371       1.76823063       0.16099861       0.00000000
Si      -2.03948261      -0.49078512       2.74632438       0.00000000
Si       0.70972272       2.19646215       2.73977312       0.00000000
Si      -2.66819516      -2.50192408      -0.17933384       0.00000000
Si       3.62437839      -0.12970098      -1.22423216       0.00000000
Si      -0.73676086       3.45435966       1.47530439       0.00000000
Si      -3.49502669       0.73774152       1.42127026       0.00000000
