10
Lattice="16.28999089631971 0.0 0.0 0.0 16.28999089631971 0.0 0.0 0.0 34.40785480372833" Properties=species:S:1:pos:R:3:initial_magmoms:R:1 pbc="T T T"
Si       0.03517011       2.33435700       0.05092365       0.00000000
Si       0.45799335      -0.53007660       2.23386241       0.00000000
Si       1.43658252      -0.75502521      -1.72060015       0.00000000
Si      -2.27747232      -0.67719159      -0.11953295       0.00000000
Si      -1.13000472       0.85203216       3.30026565       0.00000000
Si       0.81634077      -3.04010496      -1.73085370       0.00000000
Si      -0.99585657       2.93514849       2.08140112       0.00000000
Si       3.54384063       0.26476137      -1.15417773       0.00000000
Si      -2.48746671      -1.71857871      -2.29252783       0.00000000
Si      -0.67953735       3.15776763      -2.04234818       0.00000000
