10
Lattice="16.28999089631971 0.0 0.0 0.0 16.28999089631971 0.0 0.0 0.0 34.40785480372833" Properties=species:S:1:pos:R:3:initial_magmoms:R:1 pbc="T T T"
Si       2.10028599       0.89958267       0.42053304       0.00000000
Si      -0.03517011      -2.33435700      -0.05092365       0.00000000
Si      -1.03102668       0.60079149       2.03047746       0.00000000
Si      -0.71470746       0.82341063      -2.09327183       0.00000000
Si      -3.15902196       0.94993506       1.18583297       0.00000000
Si       3.19002183       0.30548637      -1.59628450       0.00000000
Si       1.43487207       0.96215256      -3.15227738       0.00000000
Si       0.42282324      -2.86443360       2.18293875       0.00000000
Si       2.58180210       0.00247608       2.56978648       0.00000000
Si      -1.51658271       2.96852670      -1.52550750       0.00000000
