10
Lattice="16.28999089631971 0.0 0.0 0.0 16.28999089631971 0.0 0.0 0.0 34.40785480372833" Properties=species:S:1:pos:R:3:initial_magmoms:R:1 pbc="T T T"
Si       0.83416203      -1.82105910       1.42944072       0.00000000
Si      -1.64542032       1.11799899       1.47575372       0.00000000
Si       2.24876934       1.07686674      -0.25245057       0.00000000
Si      -0.71575002       0.53973657      -2.35157174       0.00000000
Si      -1.93908015       3.03013548      -0.21873086       0.00000000
Si      -0.41964669       2.88030006      -2.18551934       0.00000000
Si       1.47113361       3.30823836      -0.67508249       0.00000000
Si       1.31908275      -3.44228877      -0.33041881       0.00000000
Si       0.71661339      -0.75088755      -3.66736325       0.00000000
Si      -0.33086619       2.32862292       3.09946959       0.00000000
