10
Lattice="16.28999089631971 0.0 0.0 0.0 16.28999089631971 0.0 0.0 0.0 34.40785480372833" Properties=species:S:1:pos:R:3:initial_magmoms:R:1 pbc="T T T"
Si      -1.35687555      -1.35742941       1.35783793       0.00000000
Si       1.35808101       1.35783666       1.35776912       0.00000000
Si      -1.35920502       1.35944937      -1.36162280       0.00000000
Si       1.35860229      -1.36019871      -1.36251740       0.00000000
Si      -2.71430496      -2.71298547       0.00058493       0.00000000
Si       2.71342530       2.71575477       0.00024086       0.00000000
Si       0.00004887      -2.71467963       2.71512534       0.00000000
Si      -2.71497285       0.00055386       2.71488448       0.00000000
Si       2.71466334      -2.71542897       0.00041289       0.00000000
Si       0.00047241       2.71564074       2.71512534       0.00000000
