10
Lattice="16.28999089631971 0.0 0.0 0.0 16.28999089631971 0.0 0.0 0.0 34.40785480372833" Properties=species:S:1:pos:R:3:initial_magmoms:R:1 pbc="T T T"
Si      -0.58582098       1.37321442      -1.80816819       0.00000000
Si       0.80187525      -2.14511607      -0.56776433       0.00000000
Si      -2.06070129      -0.24451290       1.13459965       0.00000000
Si       1.90027737       1.22412834       0.75504639       0.00000000
Si      -0.55884474       3.41412336      -0.55692585       0.00000000
Si       0.95646735       3.27898152       1.30746481       0.00000000
Si       1.51658271      -2.96852670       1.52550750       0.00000000
Si      -3.40602723      -1.22323239      -0.60592266       0.00000000
Si       0.61758648       0.34316514      -3.61561381       0.00000000
Si      -1.64243925      -2.01859164       2.71134047       0.00000000
