10
Lattice="16.28999089631971 0.0 0.0 0.0 16.28999089631971 0.0 0.0 0.0 34.40785480372833" Properties=species:S:1:pos:R:3:initial_magmoms:R:1 pbc="T T T"
Si      -0.94381002       2.05485318       0.55241842       0.00000000
Si      -1.90027737      -1.22412834      -0.75504639       0.00000000
Si       1.64599047      -0.94905540       1.45266603       0.00000000
Si       1.09789713       0.86698638      -1.94328791       0.00000000
Si      -2.45912211       2.18999502      -1.31197224       0.00000000
Si      -2.48609835       0.14908608      -2.56321458       0.00000000
Si       3.32449578       0.54739287      -1.36244859       0.00000000
Si       1.13191065       3.41526366       0.54694757       0.00000000
Si       1.02646548      -1.03549014      -3.39918828       0.00000000
Si      -1.09840212      -3.36924441      -1.32281072       0.00000000
