10
Lattice="16.28999089631971 0.0 0.0 0.0 16.28999089631971 0.0 0.0 0.0 34.40785480372833" Properties=species:S:1:pos:R:3:initial_magmoms:R:1 pbc="T T T"
Si       1.46574162       1.16760204       1.45585018       0.00000000
Si      -0.48948192       1.60793703      -1.75449190       0.00000000
Si       0.44059563      -0.55734606      -2.37503791       0.00000000
Si      -1.36140417      -1.53696150       1.39951417       0.00000000
Si       1.21823136      -2.78871768      -1.95240600       0.00000000
Si      -2.96961813      -0.83544894      -1.91868628       0.00000000
Si      -2.80201032       1.57841955      -1.87550440       0.00000000
Si      -0.05528826       2.36895696       2.89534144       0.00000000
Si       2.86233219       2.49002424      -0.15129142       0.00000000
Si      -2.67595830      -2.74758543      -0.22420171       0.00000000
