10
Lattice="16.28999089631971 0.0 0.0 0.0 16.28999089631971 0.0 0.0 0.0 34.40785480372833" Properties=species:S:1:pos:R:3:initial_magmoms:R:1 pbc="T T T"
Si      -1.35270531      -1.35048987      -1.38639647       0.00000000
Si       1.36352187       1.36448488      -1.38674055       0.00000000
Si       1.28865303      -1.38544821       1.46897537       0.00000000
Si      -1.15303878       1.42274304       1.59717910       0.00000000
Si       2.45869857       0.30019212       2.85471808       0.00000000
Si       2.71238274      -2.68019370      -0.02470485       0.00000000
Si      -2.68025886       2.72434679      -0.00953098       0.00000000
Si      -2.72816775      -2.68237656      -0.00839552       0.00000000
Si       2.72722293       2.71477967      -0.01021914       0.00000000
Si      -2.70949941       0.00560376      -2.74671177       0.00000000
