10
Lattice="16.28999089631971 0.0 0.0 0.0 16.28999089631971 0.0 0.0 0.0 34.40785480372833" Properties=species:S:1:pos:R:3:initial_magmoms:R:1 pbc="T T T"
Si      -2.28753954      -0.55042281      -0.37294695       0.00000000
Si       1.63693323      -1.77015285       0.32773500       0.00000000
Si       0.16827570       0.54486792       2.47365088       0.00000000
Si       0.87640200       1.20287871      -2.11081985       0.00000000
Si      -0.79361622      -2.88815184      -1.17089995       0.00000000
Si       2.42584164      -0.14841819       2.83348843       0.00000000
Si      -0.79524522      -1.30627881       3.54838083       0.00000000
Si       3.64610925      -1.17134874      -0.77527822       0.00000000
Si       2.69729820      -0.26451702      -2.86029216       0.00000000
Si      -2.88021861       0.10844253      -2.79243983       0.00000000
