10
Lattice="16.28999089631971 0.0 0.0 0.0 16.28999089631971 0.0 0.0 0.0 34.40785480372833" Properties=species:S:1:pos:R:3:initial_magmoms:R:1 pbc="T T T"
Si       2.21667804       0.03074249       0.67666525       0.00000000
Si      -1.05259464       1.07396549       1.78459879       0.00000000
Si      -0.01778868       1.81791350      -1.59291253       0.00000000
Si      -0.68810589      -2.30105277       0.76905039       0.00000000
Si      -2.94567183      -1.60776666       0.40921285       0.00000000
Si       1.88762004      -1.73759796       2.27532389       0.00000000
Si      -0.31772016       0.11756330       3.72128039       0.00000000
Si       3.48004899      -0.67135977      -1.20623684       0.00000000
Si      -3.29044968       0.34342415       1.76013480       0.00000000
Si      -0.43235289       3.35904524       1.79485234       0.00000000
