10
Lattice="16.28999089631971 0.0 0.0 0.0 16.28999089631971 0.0 0.0 0.0 34.40785480372833" Properties=species:S:1:pos:R:3:initial_magmoms:R:1 pbc="T T T"
Si      -1.05213852      -1.30568748      -1.57612149       0.00000000
Si       2.10596698      -0.87850341       0.50362805       0.00000000
Si       0.41788737       2.19766761      -0.75890007       0.00000000
Si      -1.47222504      -0.19842849       1.85214145       0.00000000
Si      -1.10415249       2.06552313       2.30584368       0.00000000
Si      -1.38119652      -3.07402793       0.02253716       0.00000000
Si      -1.59391134       3.04240185       0.10848803       0.00000000
Si       2.79255302       0.56801601       2.18028935       0.00000000
Si       0.80133656       1.81105704      -3.10290208       0.00000000
Si       3.44801375      -0.64920537      -1.43597821       0.00000000
