10
Lattice="16.28999089631971 0.0 0.0 0.0 16.28999089631971 0.0 0.0 0.0 34.40785480372833" Properties=species:S:1:pos:R:3:initial_magmoms:R:1 pbc="T T T"
Si      -0.79382799       1.37981839      -1.71213581       0.00000000
Si       1.47565508       1.28773102       1.30777448       0.00000000
Si      -2.04384114      -0.73080524       0.95124009       0.00000000
Si       0.59396598      -1.70939182      -1.53693092       0.00000000
Si       1.68873610       3.15762754      -0.12933920       0.00000000
Si      -2.90813967       0.35938021      -2.09578361       0.00000000
Si      -2.27714652      -2.82304138      -0.16901148       0.00000000
Si       0.96573636      -2.58424627       2.37448739       0.00000000
Si      -0.07806168      -3.74295397      -0.58035761       0.00000000
Si       0.43412850       2.02653139       3.27401244       0.00000000
