10
Lattice="16.28999089631971 0.0 0.0 0.0 16.28999089631971 0.0 0.0 0.0 34.40785480372833" Properties=species:S:1:pos:R:3:initial_magmoms:R:1 pbc="T T T"
Si       1.35796698       1.35464382       1.35501649       0.00000000
Si       1.35676152      -1.35863487      -1.35684010       0.00000000
Si      -1.35817875       1.35700587      -1.35742504       0.00000000
Si      -1.35804843      -1.35762489       1.35907662       0.00000000
Si       2.70628307       0.00592956       2.71233830       0.00000000
Si       2.71425649      -0.00228060      -2.71343935       0.00000000
Si      -0.00107514       2.71337643      -2.71440277       0.00000000
Si       2.71353936       2.71448415       0.00020645       0.00000000
Si      -2.71453302      -0.00081450      -2.71512534       0.00000000
Si      -2.71568961       2.71412577       0.00030967       0.00000000
