10
Lattice="16.28999089631971 0.0 0.0 0.0 16.28999089631971 0.0 0.0 0.0 34.40785480372833" Properties=species:S:1:pos:R:3:initial_magmoms:R:1 pbc="T T T"
Si       1.35710361       1.35637056      -1.35697774       0.00000000
Si      -1.35635427      -1.35782037      -1.35770030       0.00000000
Si      -1.35751086       1.35711990       1.35773471       0.00000000
Si       1.35817875      -1.35700587       1.35742504       0.00000000
Si       2.71614573      -0.00236205       2.71244153       0.00000000
Si      -2.71443528       2.71437012       0.00044730       0.00000000
Si      -2.71471221      -2.71474479       0.00051612       0.00000000
Si       0.00013032      -2.71345788      -2.71608876       0.00000000
Si       0.00016290       2.71412577       2.71546942       0.00000000
Si       2.71547784       2.71464705      -0.00041289       0.00000000
