10
Lattice="16.28999089631971 0.0 0.0 0.0 16.28999089631971 0.0 0.0 0.0 34.40785480372833" Properties=species:S:1:pos:R:3:initial_magmoms:R:1 pbc="T T T"
Si       1.87839990       1.19681001       0.52334376       0.00000000
Si       0.09635535      -2.32086888       0.17527371       0.00000000
Si      -1.15600356       0.55115586       2.00215978       0.00000000
Si      -0.48151611       0.89710659      -2.14925344       0.00000000
Si      -2.60807787       2.11986657       1.03891135       0.00000000
Si      -2.15897886      -2.86690968      -0.38684773       0.00000000
Si      -2.58180210      -0.00247608      -2.56978648       0.00000000
Si      -3.61282878       0.59831541      -0.53930902       0.00000000
Si       1.41662727      -3.04895043      -1.57753221       0.00000000
Si       1.15711128       3.27518595       1.41437007       0.00000000
