10
Lattice="16.28999089631971 0.0 0.0 0.0 16.28999089631971 0.0 0.0 0.0 34.40785480372833" Properties=species:S:1:pos:R:3:initial_magmoms:R:1 pbc="T T T"
Si      -1.25911926       1.19198817      -1.58651266       0.00000000
Si       1.44634023      -1.69134183      -1.11343880       0.00000000
Si      -2.31282162      -0.76209507       0.63272640       0.00000000
Si       0.75152286       1.82588094       1.75459513       0.00000000
Si       1.30347693      -2.49285870       1.11082381       0.00000000
Si      -1.07378793      -1.68210540       2.37813462       0.00000000
Si       0.54709965       2.06088048      -2.77871109       0.00000000
Si      -2.31839280      -0.68580900      -2.64359137       0.00000000
Si      -1.11294909       2.11796064       3.15272468       0.00000000
Si       3.17806497      -0.51354225      -2.36960147       0.00000000
