10
Lattice="16.28999089631971 0.0 0.0 0.0 16.28999089631971 0.0 0.0 0.0 34.40785480372833" Properties=species:S:1:pos:R:3:initial_magmoms:R:1 pbc="T T T"
Si      -1.30131036       1.16105346      -1.67593873       0.00000000
Si      -1.73172474      -1.17779958       1.25616267       0.00000000
Si       0.89016120       1.85297121       1.35271116       0.00000000
Si       1.39389525      -1.52769249      -1.64579743       0.00000000
Si      -2.63096532       2.57442273      -0.40910962       0.00000000
Si       2.72612240       2.60809416      -0.15727839       0.00000000
Si      -0.88480764       3.58378371       0.86721606       0.00000000
Si      -2.63998998      -2.87093331      -0.21570296       0.00000000
Si       0.04833243       2.53188954      -3.04310120       0.00000000
Si      -3.17806497       0.51354225       2.36960147       0.00000000
