10
Lattice="16.28999089631971 0.0 0.0 0.0 16.28999089631971 0.0 0.0 0.0 34.40785480372833" Properties=species:S:1:pos:R:3:initial_magmoms:R:1 pbc="T T T"
Si       1.35417141      -1.35741312       1.35708096       0.00000000
Si       1.37010303       1.33607568      -1.36662570       0.00000000
Si      -1.35759231       1.35888636       1.35783793       0.00000000
Si      -1.35567009      -1.35149985      -1.38952070       0.00000000
Si      -0.05880690       2.63856853      -2.69038608       0.00000000
Si       0.16535979      -2.55285477      -2.82901196       0.00000000
Si       2.71373481      -0.00039096       2.71454041       0.00000000
Si      -0.00130320       2.71487415       2.71498771       0.00000000
Si      -0.00117288      -2.71533123       2.71460922       0.00000000
Si       2.71500543       2.71531235       0.00168599       0.00000000
