10
Lattice="16.28999089631971 0.0 0.0 0.0 16.28999089631971 0.0 0.0 0.0 34.40785480372833" Properties=species:S:1:pos:R:3:initial_magmoms:R:1 pbc="T T T"
Si       1.29047751      -1.36101321      -1.47795582       0.00000000
Si      -1.68005286      -1.07188200       1.39909297       0.00000000
Si      -1.41152850       1.34270555      -1.46584425       0.00000000
Si       1.17208179       1.89018476       1.03815438       0.00000000
Si       2.76083036      -2.62910826      -0.18353160       0.00000000
Si      -0.75983076       3.54085046       1.25299714       0.00000000
Si      -2.59460604       2.85965153      -0.09049271       0.00000000
Si       2.65035788      -0.00703536      -2.83999151       0.00000000
Si      -0.06177168       2.70266480      -2.84160868       0.00000000
Si      -0.06406857      -2.72365542      -2.84346671       0.00000000
