10
Lattice="16.28999089631971 0.0 0.0 0.0 16.28999089631971 0.0 0.0 0.0 34.40785480372833" Properties=species:S:1:pos:R:3:initial_magmoms:R:1 pbc="T T T"
Si      -1.39302306       1.63206808       1.13518458       0.00000000
Si      -1.01038725      -1.90482228       1.21132921       0.00000000
Si      -0.04678488      -0.18715581      -2.53200663       0.00000000
Si       2.18136851       1.00273095       0.98124375       0.00000000
Si      -3.30760305       0.35300430       1.92419154       0.00000000
Si       0.47727177      -3.74163381       0.92870293       0.00000000
Si      -2.24606520       3.24116333      -0.40735482       0.00000000
Si      -0.32317731       1.98632019       3.46215469       0.00000000
Si      -3.00662901      -2.81893563       0.17107595       0.00000000
Si       3.95122814       1.10806209      -0.60409904       0.00000000
