10
Lattice="16.28999089631971 0.0 0.0 0.0 16.28999089631971 0.0 0.0 0.0 34.40785480372833" Properties=species:S:1:pos:R:3:initial_magmoms:R:1 pbc="T T T"
Si      -0.89748940      -1.88771778      -1.10177453       0.00000000
Si       0.27121058       1.25778348      -1.99187183       0.00000000
Si       2.00477609      -0.45929655       1.19949290       0.00000000
Si      -1.24322921       1.57931550       1.37074089       0.00000000
Si       2.31729974       1.84331124       1.75084467       0.00000000
Si      -0.83768882       3.26751336      -1.63169020       0.00000000
Si       0.40416956       3.17558889       1.99472768       0.00000000
Si      -2.55020832       2.84418513      -0.12999295       0.00000000
Si       0.88472456      -2.89908243      -2.35642325       0.00000000
Si       2.44286306       2.10994596      -2.20991453       0.00000000
