10
Lattice="16.28999089631971 0.0 0.0 0.0 16.28999089631971 0.0 0.0 0.0 34.40785480372833" Properties=species:S:1:pos:R:3:initial_magmoms:R:1 pbc="T T T"
Si      -1.34004798      -1.35110889      -1.38085680       0.00000000
Si       1.25706672      -1.49244093       1.35642721       0.00000000
Si       1.37274201       1.36300059      -1.38140733       0.00000000
Si      -1.37945349       1.43718525       1.50090587       0.00000000
Si       2.52871299      -0.08226450       2.78421635       0.00000000
Si      -2.67992980       2.71691136      -0.02828327       0.00000000
Si      -2.71168064      -2.69860140       0.01238683       0.00000000
Si      -2.69835379       0.00232947      -2.74268605       0.00000000
Si       2.73974994      -2.70560610      -0.02446400       0.00000000
Si       0.01772352      -2.71182888      -2.74213552       0.00000000
