10
Lattice="16.28999089631971 0.0 0.0 0.0 16.28999089631971 0.0 0.0 0.0 34.40785480372833" Properties=species:S:1:pos:R:3:initial_magmoms:R:1 pbc="T T T"
Si       1.15349490      -2.04850008      -0.27708661       0.00000000
Si      -2.18698789      -0.88806564       0.39128634       0.00000000
Si       0.22884192       1.39069359      -1.93933100       0.00000000
Si       1.19177640       1.08235647       1.78119242       0.00000000
Si      -1.95347074      -2.02298994       2.39943310       0.00000000
Si      -1.04935293       3.34449990      -1.56400991       0.00000000
Si       3.53002671       1.10447829       1.19316185       0.00000000
Si       1.32708114      -3.18055734       1.82120877       0.00000000
Si      -1.22658161       0.52090533      -3.67940601       0.00000000
Si      -2.97428426      -2.14941663      -1.49381785       0.00000000
