10
Lattice="16.28999089631971 0.0 0.0 0.0 16.28999089631971 0.0 0.0 0.0 34.40785480372833" Properties=species:S:1:pos:R:3:initial_magmoms:R:1 pbc="T T T"
Si      -1.48765902       1.83681153       0.28262628       0.00000000
Si       0.19816932      -0.74824857       2.37090897       0.00000000
Si       2.20527488      -0.20786040      -1.31231632       0.00000000
Si      -1.95790245      -0.54307602      -1.77544630       0.00000000
Si       2.02316897      -2.21034123       1.27866541       0.00000000
Si      -3.48390078       0.92269818      -0.75762698       0.00000000
Si       1.50060206      -1.93033242      -2.86803393       0.00000000
Si      -0.47727177       3.74163381      -0.92870293       0.00000000
Si       3.81347255      -0.67956993       0.55613447       0.00000000
Si       1.15925325       0.84054771       3.95900925       0.00000000
