10
Lattice="16.28999089631971 0.0 0.0 0.0 16.28999089631971 0.0 0.0 0.0 34.40785480372833" Properties=species:S:1:pos:R:3:initial_magmoms:R:1 pbc="T T T"
Si      -1.35552348       1.35439947       1.35818201       0.00000000
Si       1.35218403       1.35858600      -1.36170882       0.00000000
Si       1.35883035      -1.35913986       1.35807879       0.00000000
Si      -1.36728486      -1.36366848      -1.35456918       0.00000000
Si       0.08630442      -2.62050714      -2.66754613       0.00000000
Si      -2.71032694       2.70684414      -0.00354401       0.00000000
Si       2.71371852       2.71265967      -0.00144513       0.00000000
Si       0.00083079       2.71181259       2.71557264       0.00000000
Si      -2.71366476      -0.00301365       2.71522856       0.00000000
Si      -2.71236808      -2.71808424      -0.00216770       0.00000000
