10
Lattice="16.28999089631971 0.0 0.0 0.0 16.28999089631971 0.0 0.0 0.0 34.40785480372833" Properties=species:S:1:pos:R:3:initial_magmoms:R:1 pbc="T T T"
Si      -2.29409531      -0.36149139      -0.36142031       0.00000000
Si       0.05626729       1.00471833       2.12520234       0.00000000
Si       1.27819485      -1.95380631      -0.37532109       0.00000000
Si       0.39475557       1.75790670      -1.55791972       0.00000000
Si      -0.17722868      -2.82359457      -2.11539610       0.00000000
Si       0.13170954       3.30938585       1.56204867       0.00000000
Si      -1.76302502       2.18009952      -2.40060296       0.00000000
Si      -3.35545397       1.11386133       1.08095777       0.00000000
Si      -2.59884863       0.01477503      -2.65415459       0.00000000
Si      -2.05868852       0.90025056       3.08576696       0.00000000
