10
Lattice="10.86 0.0 0.0 0.0 10.86 0.0 0.0 0.0 10.86" Properties=species:S:1:pos:R:3:initial_magmoms:R:1 pbc="T T T"
Si       1.23155658      -1.34467434      -1.23511866       0.00000000
Si       1.23155658       1.37032566       1.47988134       0.00000000
Si      -1.48344342       1.37032566      -1.23511866       0.00000000
Si      -1.08648870      -1.69980720       1.58723244       0.00000000
Si       2.58905658       0.01282566      -2.59261866       0.00000000
Si       2.38072920       0.08676054       2.81040510       0.00000000
Si       2.76665016      -2.51841228      -0.12117588       0.00000000
Si      -0.12594342      -2.70217434      -2.59261866       0.00000000
Si       2.58905658       2.72782566       0.12238134       0.00000000
Si      -0.12594342       2.72782566      -2.59261866       0.00000000
