10
Lattice="10.86 0.0 0.0 0.0 10.86 0.0 0.0 0.0 10.86" Properties=species:S:1:pos:R:3:initial_magmoms:R:1 pbc="T T T"
Si       1.22919996       1.46498142       1.24017942       0.00000000
Si      -1.48580004      -1.25001858       1.24017942       0.00000000
Si      -1.48580004       1.46498142      -1.47482058       0.00000000
Si       0.88783758      -1.61739066      -1.78895694       0.00000000
Si       2.44178412      -2.60015550      -0.21068400       0.00000000
Si       2.58669996       0.10748142       2.59767942       0.00000000
Si      -0.12830004      -2.60751858       2.59767942       0.00000000
Si      -0.12830004       2.82248142       2.59767942       0.00000000
Si      -2.84330004       0.10748142       2.59767942       0.00000000
Si      -2.84330004      -2.60751858      -0.11732058       0.00000000
