10
Lattice="10.86 0.0 0.0 0.0 10.86 0.0 0.0 0.0 10.86" Properties=species:S:1:pos:R:3:initial_magmoms:R:1 pbc="T T T"
Si      -1.36223496       1.45210146      -1.25616534       0.00000000
Si      -1.36223496      -1.26289854       1.45883466       0.00000000
Si       1.35276504       1.45210146       1.45883466       0.00000000
Si       1.74971976      -1.61803140      -1.14881424       0.00000000
Si       0.01146816      -2.53458282      -2.41876092       0.00000000
Si      -2.71973496       0.09460146      -2.61366534       0.00000000
Si      -2.71973496      -2.62039854       0.10133466       0.00000000
Si      -0.00473496       2.80960146      -2.61366534       0.00000000
Si       2.71026504       2.80960146       0.10133466       0.00000000
Si      -2.71973496       2.80960146       0.10133466       0.00000000
