10
Lattice="16.28999089631971 0.0 0.0 0.0 16.28999089631971 0.0 0.0 0.0 34.26581377546328" Properties=species:S:1:pos:R:3:initial_magmoms:R:1 pbc="T T T"
Si       1.80924885       0.85968846       1.25432278       0.00000000
Si      -0.77333191      -1.84609683       1.28086510       0.00000000
Si      -1.42081543       1.93885209      -0.10081008       0.00000000
Si       2.97206163       0.90728784      -0.90694807       0.00000000
Si      -1.99241936      -0.29382273       2.69277504       0.00000000
Si       1.50175881       1.15279443      -2.79468707       0.00000000
Si      -0.27782595       2.68955623      -2.20678817       0.00000000
Si      -1.59002780      -0.78011181      -3.18065741       0.00000000
Si      -3.30518303       1.02793158       1.17290374       0.00000000
Si       0.74135790       2.44022571       2.70004967       0.00000000
