10
Lattice="16.28999089631971 0.0 0.0 0.0 16.28999089631971 0.0 0.0 0.0 34.26581377546328" Properties=species:S:1:pos:R:3:initial_magmoms:R:1 pbc="T T T"
Si       1.21989294      -1.43781176       1.41502470       0.00000000
Si      -1.48877568       1.29278092       1.40973406       0.00000000
Si      -0.87024438      -0.80379747      -2.14888375       0.00000000
Si       1.91715381       0.79376935      -1.62101859       0.00000000
Si       2.68613955       2.49890881      -0.13396227       0.00000000
Si       1.14982965      -1.38432094      -3.24737782       0.00000000
Si      -2.70958086       2.65741051      -0.09889119       0.00000000
Si       2.57803911      -0.06465827       2.79164769       0.00000000
Si       2.66737347      -2.73771436      -0.01897299       0.00000000
Si      -0.13883967       2.65069903       2.78894069       0.00000000
