10
Lattice="16.28999089631971 0.0 0.0 0.0 16.28999089631971 0.0 0.0 0.0 34.26581377546328" Properties=species:S:1:pos:R:3:initial_magmoms:R:1 pbc="T T T"
Si       2.14928631      -0.44189883       1.05857438       0.00000000
Si      -1.27407348      -2.11467169       0.00383777       0.00000000
Si      -0.21479994       0.91427625      -2.28782687       0.00000000
Si      -0.92727567       1.68681321       1.70660981       0.00000000
Si      -2.83421565      -1.87706412       1.78295408       0.00000000
Si      -1.17173970      -0.92809017      -3.59726141       0.00000000
Si       3.08257299       1.77793947       1.65479987       0.00000000
Si      -2.73463488      -1.98423603      -2.02788626       0.00000000
Si      -0.83442267       0.63796527       3.84072015       0.00000000
Si       1.95207957      -1.65033990       3.18134273       0.00000000
