10
Lattice="16.28999089631971 0.0 0.0 0.0 16.28999089631971 0.0 0.0 0.0 34.26581377546328" Properties=species:S:1:pos:R:3:initial_magmoms:R:1 pbc="T T T"
Si      -1.22329755      -0.24514821      -2.01181558       0.00000000
Si       1.84375107      -1.52118952      -0.13963327       0.00000000
Si       0.77649543       2.26988118       0.04595048       0.00000000
Si      -0.76088961      -0.13007565       2.27370934       0.00000000
Si       2.91431358       1.75218498       0.86648012       0.00000000
Si       3.56299767      -0.01842399      -0.61342694       0.00000000
Si      -2.17565982      -2.43076841      -1.87934387       0.00000000
Si      -0.12883761      -2.29243373       2.98815196       0.00000000
Si       2.03398569      -2.50928621       2.01424846       0.00000000
Si       0.27671823       1.59184251       3.47520651       0.00000000
