10
Lattice="16.28999089631971 0.0 0.0 0.0 16.28999089631971 0.0 0.0 0.0 34.26581377546328" Properties=species:S:1:pos:R:3:initial_magmoms:R:1 pbc="T T T"
Si       1.83578526       1.40558265      -0.44168659       0.00000000
Si      -1.55844801       0.12953808      -1.81156606       0.00000000
Si       0.84466908      -2.23726860       0.19829638       0.00000000
Si      -0.88589907       0.75689856       2.14315652       0.00000000
Si      -3.15762102       1.38241827      -0.56651702       0.00000000
Si       1.60849089       1.28643759      -2.84029489       0.00000000
Si       0.68201343      -0.37981764       3.60318940       0.00000000
Si       0.90565884      -2.48666850       2.56812138       0.00000000
Si      -3.27476241       0.64374822       1.73073296       0.00000000
Si      -2.61503370      -1.89716598      -2.34762075       0.00000000
