10
Lattice="16.28999089631971 0.0 0.0 0.0 16.28999089631971 0.0 0.0 0.0 34.26581377546328" Properties=species:S:1:pos:R:3:initial_magmoms:R:1 pbc="T T T"
Si       1.56289518       1.05614586      -1.56937515       0.00000000
Si      -0.91828359      -1.67892103      -1.57341852       0.00000000
Si       1.46056140      -0.13043566       2.03172403       0.00000000
Si      -2.05736184       1.09113678       1.34825773       0.00000000
Si      -2.60965637      -2.68347518      -0.24681679       0.00000000
Si      -0.09958077       0.10717191       3.81084034       0.00000000
Si      -2.30998390      -0.35724296      -3.04352555       0.00000000
Si       2.51983494       2.89851228      -0.25994061       0.00000000
Si       0.36202896       2.35471950      -3.06117245       0.00000000
Si      -2.71747011       2.77589745      -0.32535408       0.00000000
