10
Lattice="16.28999089631971 0.0 0.0 0.0 16.28999089631971 0.0 0.0 0.0 34.26581377546328" Properties=species:S:1:pos:R:3:initial_magmoms:R:1 pbc="T T T"
Si       1.35653346      -1.35707103      -1.35713258       0.00000000
Si       1.35799956       1.35646830       1.35696125       0.00000000
Si      -1.35856971      -1.35733167       1.35641300       0.00000000
Si      -1.35799956       1.35729909      -1.35713258       0.00000000
Si       2.71358820       0.00079821      -2.71460782       0.00000000
Si       2.71381626      -2.71456560       0.00027413       0.00000000
Si      -0.00239463       2.71407690      -2.71498474       0.00000000
Si      -2.71547784      -0.00009774      -2.71368264       0.00000000
Si       2.71435383       2.71484253      -0.00020559       0.00000000
Si      -2.71485882      -0.00338832       2.71471061       0.00000000
