10
Lattice="16.28999089631971 0.0 0.0 0.0 16.28999089631971 0.0 0.0 0.0 34.26581377546328" Properties=species:S:1:pos:R:3:initial_magmoms:R:1 pbc="T T T"
Si       0.66225366      -1.35063648      -1.80176603       0.00000000
Si      -0.63638514      -1.07496081       1.99663582       0.00000000
Si       2.26471725       0.76980024      -0.16745713       0.00000000
Si      -1.72711467       1.65758895      -0.42033897       0.00000000
Si       1.77551226       1.43006652      -2.33761512       0.00000000
Si       2.29229622       2.56716783       1.31937163       0.00000000
Si      -2.89509464       1.57025826       1.67025376       0.00000000
Si      -1.44814842       0.66823209       3.34838866       0.00000000
Si      -1.18161144      -2.57271228      -2.51559186       0.00000000
Si      -2.11009257      -2.83918410       1.40222641       0.00000000
