10
Lattice="16.28999089631971 0.0 0.0 0.0 16.28999089631971 0.0 0.0 0.0 34.26581377546328" Properties=species:S:1:pos:R:3:initial_magmoms:R:1 pbc="T T T"
Si      -0.48920499       0.66026628      -2.17015800       0.00000000
Si       0.02757897       1.79736759       1.48682876       0.00000000
Si      -2.26471725      -0.76980024       0.16745713       0.00000000
Si       1.97539056      -1.40191740       0.06517361       0.00000000
Si      -1.60246359      -2.12043672      -1.63430890       0.00000000
Si       0.21781359       0.80927091       3.64071048       0.00000000
Si      -1.47932748       2.83580134      -2.16446987       0.00000000
Si       1.74682557       3.30013313       1.01303508       0.00000000
Si       1.75050711      -3.39444504      -1.15119492       0.00000000
Si       3.79037349      -0.64101150      -1.27873235       0.00000000
