10
Lattice="16.28999089631971 0.0 0.0 0.0 16.28999089631971 0.0 0.0 0.0 34.26581377546328" Properties=species:S:1:pos:R:3:initial_magmoms:R:1 pbc="T T T"
Si      -2.27440980       0.43365676       0.04581342       0.00000000
Si       0.59821767       1.56202759      -1.64472571       0.00000000
Si       0.99689913       0.23713746       2.11022705       0.00000000
Si      -0.33212052      -2.18900133      -0.78071274       0.00000000
Si      -1.02317490       0.81766093       3.20872113       0.00000000
Si      -2.12353182       2.24553482       1.57814720       0.00000000
Si       1.83226662      -2.72891709      -1.46524128       0.00000000
Si       0.37708092       0.27833601      -3.57550260       0.00000000
Si      -0.99810459      -3.31499871       1.17473555       0.00000000
Si       2.68962561       2.34478979      -0.95574261       0.00000000
