10
Lattice="16.28999089631971 0.0 0.0 0.0 16.28999089631971 0.0 0.0 0.0 34.26581377546328" Properties=species:S:1:pos:R:3:initial_magmoms:R:1 pbc="T T T"
Si      -1.36041048      -1.34033438       1.37412158       0.00000000
Si      -1.21989294       1.43781176      -1.41502470       0.00000000
Si       1.35814617       1.37315350       1.37662298       0.00000000
Si       1.44748053      -1.29990260      -1.43399770       0.00000000
Si       2.72769534      -2.68722416       0.01019409       0.00000000
Si       0.69726087       2.23158111      -3.03604330       0.00000000
Si      -0.00270414      -2.69913215       2.73409822       0.00000000
Si      -2.72756502      -2.70823826      -0.01804781       0.00000000
Si      -2.70866862       2.73059268      -0.00529064       0.00000000
Si       2.72051145       2.72520069       0.01325402       0.00000000
