10
Lattice="16.28999089631971 0.0 0.0 0.0 16.28999089631971 0.0 0.0 0.0 34.26581377546328" Properties=species:S:1:pos:R:3:initial_magmoms:R:1 pbc="T T T"
Si       2.27129841      -0.13033629       0.42736347       0.00000000
Si       0.10456551       0.46662705      -2.26497156       0.00000000
Si      -0.35266221       1.75598055       1.57571433       0.00000000
Si      -1.66970871      -1.74794958       0.21340761       0.00000000
Si       0.65256111       0.70675794       3.44669734       0.00000000
Si       2.27164050      -0.83421090       2.71693789       0.00000000
Si       1.51962894       3.12450345       1.30052542       0.00000000
Si      -2.67296094       1.88825535       1.86241655       0.00000000
Si      -0.60097068      -3.30331878       1.70650701       0.00000000
Si       3.19218840       2.01174984       0.22262512       0.00000000
