10
Lattice="16.28999089631971 0.0 0.0 0.0 16.28999089631971 0.0 0.0 0.0 34.26581377546328" Properties=species:S:1:pos:R:3:initial_magmoms:R:1 pbc="T T T"
Si       0.93289572      -2.09867654       0.35794089       0.00000000
Si       1.76816547       1.32295977      -0.81974152       0.00000000
Si      -1.67232163      -0.06980265      -1.75893374       0.00000000
Si      -0.60483141       0.97309944       2.17742235       0.00000000
Si       0.59157135       3.23271792      -0.02467140       0.00000000
Si      -1.81267789       3.05041653       0.00445456       0.00000000
Si      -2.77239363       1.65045393       1.67439993       0.00000000
Si      -0.96111000      -3.47466419       0.46560414       0.00000000
Si       3.58495659       0.83732229       0.68497400       0.00000000
Si       0.85665852       2.83230972       2.35248649       0.00000000
