10
Lattice="16.28999089631971 0.0 0.0 0.0 16.28999089631971 0.0 0.0 0.0 34.26581377546328" Properties=species:S:1:pos:R:3:initial_magmoms:R:1 pbc="T T T"
Si       0.22437846      -1.75337415      -1.45585244       0.00000000
Si       1.18864872       1.79680329      -0.86295074       0.00000000
Si       0.85556709      -0.81161667       2.09974171       0.00000000
Si      -2.18649267       0.78949485      -0.73531051       0.00000000
Si       0.17570394       3.54201615       0.32768416       0.00000000
Si      -0.93354732      -3.47962545      -0.33114501       0.00000000
Si      -2.09598543       2.97232227       0.18986698       0.00000000
Si      -0.98394858      -0.34612992       3.57330959       0.00000000
Si      -0.84530439      -1.05221997      -3.49765063       0.00000000
Si       0.71436537       1.93192884      -3.22821839       0.00000000
