10
Lattice="16.28999089631971 0.0 0.0 0.0 16.28999089631971 0.0 0.0 0.0 34.26581377546328" Properties=species:S:1:pos:R:3:initial_magmoms:R:1 pbc="T T T"
Si      -1.90202040       1.18732923       0.78071274       0.00000000
Si       0.19800495      -2.36869632       0.24883848       0.00000000
Si      -0.48902580       0.59891814      -2.26366945       0.00000000
Si       2.00091699       1.17703395       0.66338653       0.00000000
Si       0.64049022      -2.34316989       2.62815512       0.00000000
Si      -1.19855304       3.38346558       0.07740652       0.00000000
Si      -3.60140949       0.03000618      -0.25764480       0.00000000
Si      -0.51344451       2.92690575      -2.11074104       0.00000000
Si       0.98269425       3.37579299       1.02903723       0.00000000
Si       2.31546060      -2.76374511      -1.05059044       0.00000000
