10
Lattice="16.28999089631971 0.0 0.0 0.0 16.28999089631971 0.0 0.0 0.0 34.26581377546328" Properties=species:S:1:pos:R:3:initial_magmoms:R:1 pbc="T T T"
Si      -1.35475785       1.35837423      -1.35946266       0.00000000
Si       1.36086660      -1.35588186      -1.35884587       0.00000000
Si       1.36327752       1.36130643       1.35247243       0.00000000
Si      -1.34930070      -1.36524861       1.36844030       0.00000000
Si       2.71417464      -2.71169856       0.00349511       0.00000000
Si      -2.71137276      -2.71520091      -0.00113077       0.00000000
Si       2.51454069       0.02798622       2.89830695       0.00000000
Si      -2.71301805       2.71463076       0.00236434       0.00000000
Si      -2.71295289       0.00055386      -2.71549873       0.00000000
Si       0.00201996      -2.71384884      -2.71488194       0.00000000
