10
Lattice="16.28999089631971 0.0 0.0 0.0 16.28999089631971 0.0 0.0 0.0 34.26581377546328" Properties=species:S:1:pos:R:3:initial_magmoms:R:1 pbc="T T T"
Si       0.68510853      -0.45655983      -2.18814756       0.00000000
Si       2.18124729      -0.00767259       0.95163071       0.00000000
Si      -0.70346736      -2.19613635       0.70330622       0.00000000
Si      -1.47013992       1.86691545       0.48314824       0.00000000
Si       0.94605804       0.70910370       2.80046433       0.00000000
Si       1.19855304      -3.38346558      -0.07740652       0.00000000
Si      -0.92429460       0.61638102      -3.42713155       0.00000000
Si       0.70952724      -2.78454744      -2.34107597       0.00000000
Si      -0.81643851       2.44679058       2.73703621       0.00000000
Si      -1.80071289      -1.96397127       2.76800773       0.00000000
