10
Lattice="16.28999089631971 0.0 0.0 0.0 16.28999089631971 0.0 0.0 0.0 34.26581377546328" Properties=species:S:1:pos:R:3:initial_magmoms:R:1 pbc="T T T"
Si      -1.35158130      -1.36171368      -1.37817180       0.00000000
Si       1.36692648       1.35145098      -1.37854872       0.00000000
Si       1.43889570      -1.34522820       1.35391159       0.00000000
Si      -1.20008430       1.41705832       1.58256749       0.00000000
Si       0.76476663       2.15233158       2.88312718       0.00000000
Si       2.57937489       0.23087817       2.77916465       0.00000000
Si      -2.70542691      -2.71915938       0.00908045       0.00000000
Si      -2.70839169       2.71814844       0.02069656       0.00000000
Si       2.72471427      -2.71503801      -0.02806372       0.00000000
Si       2.72904741       2.71891407      -0.01041681       0.00000000
