10
Lattice="16.28999089631971 0.0 0.0 0.0 16.28999089631971 0.0 0.0 0.0 34.26581377546328" Properties=species:S:1:pos:R:3:initial_magmoms:R:1 pbc="T T T"
Si       1.35329175      -1.35573525      -1.36103888       0.00000000
Si      -1.35967743       1.36074347      -1.35901720       0.00000000
Si      -1.36692648      -1.35145098       1.37854872       0.00000000
Si       1.36212093       1.36746309       1.36813191       0.00000000
Si      -0.11106522       2.63638079       2.75730304       0.00000000
Si       2.70884781       2.71830320      -0.00383777       0.00000000
Si       2.71362078      -2.71378368      -0.00424896       0.00000000
Si       2.71160082       0.00246708      -2.71714349       0.00000000
Si      -0.00278559      -2.71244790      -2.71748615       0.00000000
Si       0.07196922      -2.69667918       2.73246031       0.00000000
