10
Lattice="16.28999089631971 0.0 0.0 0.0 16.28999089631971 0.0 0.0 0.0 34.26581377546328" Properties=species:S:1:pos:R:3:initial_magmoms:R:1 pbc="T T T"
Si      -1.14047919      -1.57610637      -1.42525305       0.00000000
Si       1.60314777       1.12272309      -1.41452785       0.00000000
Si       1.45627713      -1.17977067       1.71976789       0.00000000
Si      -1.81460826       1.92145341       0.10396254       0.00000000
Si      -1.65128472      -0.77095683       3.15968672       0.00000000
Si       2.42338185      -2.75099004       0.09779469       0.00000000
Si       0.14967252       2.48803590      -2.78958146       0.00000000
Si      -2.57937489      -0.23087817      -2.77916465       0.00000000
Si      -2.07938592      -3.32848683      -0.10396254       0.00000000
Si       2.86440102      -0.25625799      -2.80277380       0.00000000
