10
Lattice="16.28999089631971 0.0 0.0 0.0 16.28999089631971 0.0 0.0 0.0 34.26581377546328" Properties=species:S:1:pos:R:3:initial_magmoms:R:1 pbc="T T T"
Si      -1.17095778      -2.03103720      -0.32693031       0.00000000
Si       1.01250495       0.03945438      -2.15336774       0.00000000
Si      -1.33341795       2.01111846      -0.14453328       0.00000000
Si      -0.51725637      -1.45116207       1.92695766       0.00000000
Si       0.18412587       0.65772504       3.08387155       0.00000000
Si       1.27532781       2.55792163       1.56118561       0.00000000
Si       2.64461634       2.40468160      -0.54558059       0.00000000
Si      -2.33031708       1.77398100      -2.25476034       0.00000000
Si      -3.32842167      -1.54101771      -1.08002479       0.00000000
Si      -0.49805046      -0.95493609      -3.72000162       0.00000000
