10
Lattice="16.28999089631971 0.0 0.0 0.0 16.28999089631971 0.0 0.0 0.0 34.26581377546328" Properties=species:S:1:pos:R:3:initial_magmoms:R:1 pbc="T T T"
Si      -1.28233251       1.26708507      -1.49474074       0.00000000
Si      -1.35935163      -1.35402480       1.35728678       0.00000000
Si       1.35744570       1.36098063       1.35694412       0.00000000
Si       1.32652728      -1.27542555      -1.49266765       0.00000000
Si      -2.02517280      -0.73661751      -2.79872842       0.00000000
Si       0.46636641       2.21990346      -2.73903734       0.00000000
Si       2.26194795       0.41399406      -2.93287916       0.00000000
Si      -0.21344787      -2.46005064      -2.86078384       0.00000000
Si      -2.69834076       2.69907381      -0.02249552       0.00000000
Si       2.70630802      -2.70901071      -0.03079128       0.00000000
