10
Lattice="16.28999089631971 0.0 0.0 0.0 16.28999089631971 0.0 0.0 0.0 34.26581377546328" Properties=species:S:1:pos:R:3:initial_magmoms:R:1 pbc="T T T"
Si       1.35825206      -1.35752715       1.35291788       0.00000000
Si       1.35642758       1.35791811      -1.35730391       0.00000000
Si      -1.35826707      -1.35661491      -1.35682419       0.00000000
Si      -1.35884568       1.35742941       1.35843468       0.00000000
Si       2.69774618      -0.00423540       2.69911966       0.00000000
Si       2.71343344      -2.71139882       0.00020559       0.00000000
Si       2.71405246       0.00084708      -2.71450502       0.00000000
Si      -0.00066626      -2.71501195      -2.71419663       0.00000000
Si       2.71344974       2.71590138      -0.00051399       0.00000000
Si      -2.71627509      -2.71309787      -0.00058252       0.00000000
