10
Lattice="16.28999089631971 0.0 0.0 0.0 16.28999089631971 0.0 0.0 0.0 34.26581377546328" Properties=species:S:1:pos:R:3:initial_magmoms:R:1 pbc="T T T"
Si      -1.44533025      -1.41820740       1.16815651       0.00000000
Si       1.19526246      -1.41073029      -1.43662931       0.00000000
Si       1.81340280       0.69610428       1.35548782       0.00000000
Si      -1.51858638       1.32921513      -1.38694385       0.00000000
Si       2.59842313       2.58849729       0.03954277       0.00000000
Si       2.55536343      -0.04237029      -2.78899894       0.00000000
Si       2.66821650      -2.68038918      -0.12212343       0.00000000
Si      -0.16228098       2.67602346      -2.78557236       0.00000000
Si       3.53245622      -0.98285715       1.28750441       0.00000000
Si      -0.16211808      -2.75617026      -2.79091783       0.00000000
