10
Lattice="16.28999089631971 0.0 0.0 0.0 16.28999089631971 0.0 0.0 0.0 34.26581377546328" Properties=species:S:1:pos:R:3:initial_magmoms:R:1 pbc="T T T"
Si      -1.67255946       1.11275361       1.07790031       0.00000000
Si      -0.92088999      -2.14208613       0.20473835       0.00000000
Si       0.17111016       0.56918889      -2.30026536       0.00000000
Si       1.59815230       1.77661998       0.52001828       0.00000000
Si       0.38973825       0.33469434       2.90639368       0.00000000
Si       1.89016358      -1.10977254      -2.36824878       0.00000000
Si       0.08074953       3.59909631       0.43870546       0.00000000
Si      -3.19218840      -2.01174984      -0.22262512       0.00000000
Si      -3.54485061      -0.25576929       1.35308921       0.00000000
Si       2.55027185      -2.79453321      -0.69463697       0.00000000
