10
Lattice="16.28999089631971 0.0 0.0 0.0 16.28999089631971 0.0 0.0 0.0 34.26581377546328" Properties=species:S:1:pos:R:3:initial_magmoms:R:1 pbc="T T T"
Si       1.21779057       1.22583879       1.54610865       0.00000000
Si      -0.23591178       1.41597567      -1.84093187       0.00000000
Si       1.35814684      -1.89438039      -0.21727965       0.00000000
Si      -2.20110480      -0.78279966       0.44168659       0.00000000
Si       0.25807483      -0.17412381       3.21605402       0.00000000
Si      -2.66080860      -1.16372502      -1.85412422       0.00000000
Si      -0.27836352      -3.55485267      -0.49575807       0.00000000
Si      -2.40313338       1.04987421      -2.51264500       0.00000000
Si       2.00919950      -1.73804526      -2.48214841       0.00000000
Si       1.19604505       0.33554142      -3.41777697       0.00000000
