10
Lattice="16.28999089631971 0.0 0.0 0.0 16.28999089631971 0.0 0.0 0.0 34.26581377546328" Properties=species:S:1:pos:R:3:initial_magmoms:R:1 pbc="T T T"
Si      -1.35845568       1.35563751      -1.36182700       0.00000000
Si       1.35842540      -1.36044306      -1.36076476       0.00000000
Si       1.34184870       1.36964691       1.37138717       0.00000000
Si      -1.36919079      -1.36427121       1.39712081       0.00000000
Si       2.69126180      -0.01270620       2.66317480       0.00000000
Si      -2.71296918       2.71052568      -0.00544827       0.00000000
Si       2.71139624       2.71422351       0.00075385       0.00000000
Si      -0.00000134       2.71239903      -2.71847986       0.00000000
Si      -2.71790505      -2.71518462       0.00030839       0.00000000
Si       2.71489859      -0.00273672      -2.71861692       0.00000000
