10
Lattice="16.28999089631971 0.0 0.0 0.0 16.28999089631971 0.0 0.0 0.0 34.26581377546328" Properties=species:S:1:pos:R:3:initial_magmoms:R:1 pbc="T T T"
Si      -0.62991801      -1.25015976       1.80491848       0.00000000
Si       0.35230383       2.26926216       0.16485292       0.00000000
Si      -1.67847273       0.03288951      -1.59421788       0.00000000
Si       2.22284285      -0.63617337      -0.26189376       0.00000000
Si      -0.25536204      -1.25713188      -2.96940855       0.00000000
Si       0.03745071       0.30700134       3.49350446       0.00000000
Si       3.13448012       0.57174642       1.57749615       0.00000000
Si       0.67261410       2.86591599      -2.08953049       0.00000000
Si       0.94806727       0.82899810      -3.39461327       0.00000000
Si      -2.98216143      -1.34371323       1.55614854       0.00000000
