10
Lattice="16.28999089631971 0.0 0.0 0.0 16.28999089631971 0.0 0.0 0.0 34.26581377546328" Properties=species:S:1:pos:R:3:initial_magmoms:R:1 pbc="T T T"
Si       1.83594816      -0.94354938      -1.18422719       0.00000000
Si      -1.11182508       0.89145396      -1.95277555       0.00000000
Si      -1.56061458      -1.74273678       0.75405392       0.00000000
Si       0.12085551       1.44873486       2.11327671       0.00000000
Si       0.16586478       2.80100034       0.22276218       0.00000000
Si       3.22991345       0.91873971      -0.74610425       0.00000000
Si       1.85238477       2.69842221      -1.37745222       0.00000000
Si       0.90288954      -1.56859668      -3.26772689       0.00000000
Si      -1.34653140      -0.90943812      -3.43443017       0.00000000
Si      -1.15272927       0.14553486       3.72054100       0.00000000
