10
Lattice="16.28999089631971 0.0 0.0 0.0 16.28999089631971 0.0 0.0 0.0 34.26581377546328" Properties=species:S:1:pos:R:3:initial_magmoms:R:1 pbc="T T T"
Si      -1.35451350       1.35488817       1.35637873       0.00000000
Si      -1.35703845      -1.35770634      -1.35658433       0.00000000
Si       1.35845434       1.35676152      -1.35665286       0.00000000
Si       1.35845568      -1.35563751       1.36182700       0.00000000
Si       0.00871515       2.69184105       2.71556726       0.00000000
Si      -2.71034649       0.00218286       2.71111270       0.00000000
Si      -2.71275741      -2.71500543      -0.00020559       0.00000000
Si      -2.71484253       2.71293660      -0.00041119       0.00000000
Si       0.00079821       2.71430496      -2.71354558       0.00000000
Si      -2.71433754      -0.00017919      -2.71392250       0.00000000
