10
Lattice="16.28999089631971 0.0 0.0 0.0 16.28999089631971 0.0 0.0 0.0 34.26581377546328" Properties=species:S:1:pos:R:3:initial_magmoms:R:1 pbc="T T T"
Si       1.41332040       1.76563793       0.55342747       0.00000000
Si       0.72373212      -0.93243960      -2.01931980       0.00000000
Si      -2.32099920       0.04048065      -0.55075473       0.00000000
Si       0.53532198      -1.76415813       1.52195124       0.00000000
Si      -2.36938050      -2.31619365      -0.59399821       0.00000000
Si      -1.63815498      -2.53053747       1.70277204       0.00000000
Si      -3.13918074       0.98125326       1.40065019       0.00000000
Si       2.42911593      -2.61319293       0.42619843       0.00000000
Si      -0.62284815      -2.85620715      -2.14552086       0.00000000
Si       2.37457701       1.12856210       2.63665305       0.00000000
