10
Lattice="16.28999089631971 0.0 0.0 0.0 16.28999089631971 0.0 0.0 0.0 34.26581377546328" Properties=species:S:1:pos:R:3:initial_magmoms:R:1 pbc="T T T"
Si      -0.35230383      -2.26926216      -0.16485292       0.00000000
Si       1.98077345       0.50857380       1.12881933       0.00000000
Si      -1.89379395       0.84903480       1.09575281       0.00000000
Si       0.32031027       0.59665383      -2.25438341       0.00000000
Si      -0.91354320       0.35616456       3.22417502       0.00000000
Si      -1.70538381       1.68075333      -2.44551823       0.00000000
Si       0.96222002       1.74138471       2.84183685       0.00000000
Si       1.87053902      -2.90543553      -0.42674668       0.00000000
Si      -2.03077656      -2.23637265      -1.75907080       0.00000000
Si       2.78217629      -1.69751574       1.41264323       0.00000000
