10
Lattice="16.28999089631971 0.0 0.0 0.0 16.28999089631971 0.0 0.0 0.0 34.26581377546328" Properties=species:S:1:pos:R:3:initial_magmoms:R:1 pbc="T T T"
Si      -2.17347696      -0.76637934       0.18082080       0.00000000
Si       1.89379395      -0.84903480      -1.09575281       0.00000000
Si      -0.53532198       1.76415813      -1.52195124       0.00000000
Si       0.98025075      -0.49287024       2.12842221       0.00000000
Si       2.85601397       0.89234991       1.74608405       0.00000000
Si      -2.94511797       1.11998637       1.45246013       0.00000000
Si       1.83925503       2.89272023       1.11470181       0.00000000
Si      -2.90470248      -0.55203552      -2.11594945       0.00000000
Si       0.18841014       0.83171853      -3.54127104       0.00000000
Si       1.54149012      -3.11829696      -1.26060573       0.00000000
