10
Lattice="16.28999089631971 0.0 0.0 0.0 16.28999089631971 0.0 0.0 0.0 34.26581377546328" Properties=species:S:1:pos:R:3:initial_magmoms:R:1 pbc="T T T"
Si       1.84225239      -1.41221268       0.43733483       0.00000000
Si      -1.46148993      -1.85921028      -0.17506414       0.00000000
Si      -0.11328066       0.32249313       2.38490197       0.00000000
Si      -0.26508717       0.40040820      -2.37715789       0.00000000
Si      -0.40321008       2.59294446       2.15782230       0.00000000
Si      -2.66933641       0.21810681      -2.34803194       0.00000000
Si       0.91150695      -1.50934995      -3.17222801       0.00000000
Si      -1.08957294      -2.99745774       1.98186724       0.00000000
Si       2.72829807      -1.99498743      -1.66751249       0.00000000
Si      -0.85665852      -2.83230972      -2.35248649       0.00000000
