10
Lattice="16.28999089631971 0.0 0.0 0.0 16.28999089631971 0.0 0.0 0.0 34.26581377546328" Properties=species:S:1:pos:R:3:initial_magmoms:R:1 pbc="T T T"
Si      -1.35800802      -1.35648296       1.35624167       0.00000000
Si       1.35826707       1.35661491       1.35682419       0.00000000
Si       1.35760081      -1.35839704      -1.35737244       0.00000000
Si      -1.35802431       1.35795069      -1.35740671       0.00000000
Si       2.71651913      -0.00091224       2.70974207       0.00000000
Si      -0.00242743      -2.71323376       2.71453928       0.00000000
Si       2.71469465       2.71453302      -0.00047972       0.00000000
Si      -0.00057861       2.71404432       2.71525887       0.00000000
Si       2.71397789      -0.00052128      -2.71577285       0.00000000
Si       2.71480868      -2.71507677      -0.00037692       0.00000000
