10
Lattice="16.28999089631971 0.0 0.0 0.0 16.28999089631971 0.0 0.0 0.0 34.26581377546328" Properties=species:S:1:pos:R:3:initial_magmoms:R:1 pbc="T T T"
Si      -1.35647319      -1.35770634       1.35785216       0.00000000
Si      -1.35723882       1.35760860      -1.35730391       0.00000000
Si       1.35770634      -1.35773892      -1.35699552       0.00000000
Si       1.35711990       1.35684297       1.35860601       0.00000000
Si       2.71331127      -0.00096111      -2.71484768       0.00000000
Si       0.00022806      -2.71513575      -2.71354558       0.00000000
Si       0.00114030       2.71477737      -2.71484768       0.00000000
Si      -2.71489993       2.71513575       0.00013706       0.00000000
Si      -2.71497834      -2.71508688      -0.00030839       0.00000000
Si       2.71518462       2.71513575       0.00023986       0.00000000
