10
Lattice="16.28999089631971 0.0 0.0 0.0 16.28999089631971 0.0 0.0 0.0 34.26581377546328" Properties=species:S:1:pos:R:3:initial_magmoms:R:1 pbc="T T T"
Si       2.02644505      -0.52142661       1.12251442       0.00000000
Si      -0.27545317       2.03691789       1.30508278       0.00000000
Si      -1.20342931      -2.08612998       0.42520472       0.00000000
Si       0.78995423       0.60826860      -2.25174494       0.00000000
Si      -2.62654000      -0.79610859       1.80039539       0.00000000
Si      -0.94806727      -0.82899810       3.39461327       0.00000000
Si      -1.06551817      -2.75142987      -2.16176287       0.00000000
Si       1.27477558      -1.46517147       3.13271951       0.00000000
Si      -0.50234029      -0.94482000      -3.62926569       0.00000000
Si      -0.59576344       1.44026406       3.55946619       0.00000000
