10
Lattice="16.28999089631971 0.0 0.0 0.0 16.28999089631971 0.0 0.0 0.0 34.26581377546328" Properties=species:S:1:pos:R:3:initial_magmoms:R:1 pbc="T T T"
Si       1.35710524      -1.35852084       1.36028504       0.00000000
Si      -1.36045397       1.35607984       1.35977105       0.00000000
Si       1.36481041       1.35871632      -1.36968415       0.00000000
Si      -1.36896685      -1.37533212      -1.37695879       0.00000000
Si       2.43270136      -0.22182093      -2.81541104       0.00000000
Si      -0.02199476       2.66075063      -2.75716255       0.00000000
Si       2.71534915       2.71152004       0.00185035       0.00000000
Si      -2.71359376      -2.71388142       0.00332379       0.00000000
Si       2.71433917      -2.71555929       0.00445456       0.00000000
Si       2.71303597      -0.00035838       2.71769174       0.00000000
