10
Lattice="16.28999089631971 0.0 0.0 0.0 16.28999089631971 0.0 0.0 0.0 34.26581377546328" Properties=species:S:1:pos:R:3:initial_magmoms:R:1 pbc="T T T"
Si       1.35720787      -1.35667973       1.35699552       0.00000000
Si       1.35637708       1.35787576      -1.35840041       0.00000000
Si      -1.35760081       1.35839704       1.35737244       0.00000000
Si      -1.35943910      -1.35732984      -1.35822909       0.00000000
Si       2.71405084      -2.71376806      -0.00030839       0.00000000
Si       0.00039422      -2.71314904       2.71481341       0.00000000
Si       2.71409971       0.00361312       2.71440222       0.00000000
Si       0.00066626       2.71501195       2.71419663       0.00000000
Si      -2.71560883       0.00191408       2.71361411       0.00000000
Si      -2.71557625      -2.71402870       0.00037692       0.00000000
