10
Lattice="16.28999089631971 0.0 0.0 0.0 16.28999089631971 0.0 0.0 0.0 34.26581377546328" Properties=species:S:1:pos:R:3:initial_magmoms:R:1 pbc="T T T"
Si       1.69137278       1.00455415      -1.32660172       0.00000000
Si      -1.66740435       1.75611806      -0.39299484       0.00000000
Si      -1.19541789      -1.75563846      -1.25097703       0.00000000
Si      -0.00190919      -0.35249931       2.50839603       0.00000000
Si      -2.22038469       0.47671056       2.61249563       0.00000000
Si      -1.60028955       2.68815041       1.68365170       0.00000000
Si       0.29967247       2.32623222      -2.79670875       0.00000000
Si      -2.43438642      -0.40907448      -2.79818218       0.00000000
Si       2.60965637       2.68347518       0.24681679       0.00000000
Si      -0.06175539      -2.76205095       2.63843487       0.00000000
