10
Lattice="16.28999089631971 0.0 0.0 0.0 16.28999089631971 0.0 0.0 0.0 34.26581377546328" Properties=species:S:1:pos:R:3:initial_magmoms:R:1 pbc="T T T"
Si       2.16497195      -0.86322339      -0.54355891       0.00000000
Si       0.05984620       2.40955164      -0.13003884       0.00000000
Si      -1.29229452      -1.55308860      -1.37752075       0.00000000
Si      -0.78995423      -0.60826860       2.25174494       0.00000000
Si       1.23649082      -1.12969521       3.37425937       0.00000000
Si      -2.81365020      -0.14175558      -2.53604856       0.00000000
Si       0.06175539       2.76205095      -2.63843487       0.00000000
Si      -1.85547240      -3.35969847       0.08998208       0.00000000
Si      -2.15862930       3.23876151      -0.02593924       0.00000000
Si       1.83956291      -3.34968012      -0.80764568       0.00000000
