10
Lattice="16.28999089631971 0.0 0.0 0.0 16.28999089631971 0.0 0.0 0.0 34.26581377546328" Properties=species:S:1:pos:R:3:initial_magmoms:R:1 pbc="T T T"
Si       0.95236227       2.18562020      -0.13247171       0.00000000
Si      -1.16797997      -0.08733069       2.09059273       0.00000000
Si       1.72711467      -1.65758895       0.42033897       0.00000000
Si      -1.55962252      -0.95752620      -1.68173281       0.00000000
Si       2.51250444       1.94801263      -1.91158802       0.00000000
Si       2.17565982       2.43076841       1.87934387       0.00000000
Si       1.09072953      -2.73254976       2.41697479       0.00000000
Si      -2.68487612      -1.93842855       2.00513375       0.00000000
Si       0.27896625      -0.98935686       3.76872763       0.00000000
Si       3.50262693      -0.22752243      -1.91727615       0.00000000
