10
Lattice="16.28999089631971 0.0 0.0 0.0 16.28999089631971 0.0 0.0 0.0 34.26581377546328" Properties=species:S:1:pos:R:3:initial_magmoms:R:1 pbc="T T T"
Si       1.77585435      -1.15180074       1.01975119       0.00000000
Si      -0.81176328       1.74319290       1.35175284       0.00000000
Si       0.63638514       1.07496081      -1.99663582       0.00000000
Si      -1.47370743      -1.76422329      -0.59440940       0.00000000
Si      -2.25870950       2.64521907      -0.32638206       0.00000000
Si       2.10794229      -2.78257635      -0.67904601       0.00000000
Si      -2.11514247       0.70604118       2.97136170       0.00000000
Si      -0.06485049      -3.50710668      -1.26530015       0.00000000
Si      -2.22537690      -2.70796815       1.41579568       0.00000000
Si      -1.09072953       2.73254976      -2.41697479       0.00000000
