10
Lattice="16.28999089631971 0.0 0.0 0.0 16.28999089631971 0.0 0.0 0.0 34.71893929493243" Properties=species:S:1:pos:R:3:initial_magmoms:R:1 pbc="T T T"
Si       0.82300338      -1.44397818      -1.70345099       0.00000000
Si      -2.08736802      -0.76362633       0.90092226       0.00000000
Si       0.05559777       2.41452728      -0.45124231       0.00000000
Si       1.32675534      -1.12995585       1.87631668       0.00000000
Si      -2.34291577       0.96686919       2.62957921       0.00000000
Si      -0.12237048      -0.34471269      -3.64389359       0.00000000
Si       1.68409278       2.44293704      -2.20680645       0.00000000
Si       3.29305608      -1.44041067      -1.55846462       0.00000000
Si      -0.09161496      -3.68950581      -1.52614127       0.00000000
Si      -1.95278004      -3.04028415       1.87576118       0.00000000
