10
Lattice="16.28999089631971 0.0 0.0 0.0 16.28999089631971 0.0 0.0 0.0 34.71893929493243" Properties=species:S:1:pos:R:3:initial_magmoms:R:1 pbc="T T T"
Si      -1.50588018       1.19491499      -1.30148530       0.00000000
Si      -1.34721558      -1.32971313       1.35407064       0.00000000
Si       1.16229150      -1.44659388      -1.46560876       0.00000000
Si       1.36622601       1.38714025       1.34907111       0.00000000
Si       0.33892974       2.03470033      -2.58437409       0.00000000
Si       2.07790353       0.36057866      -2.69976502       0.00000000
Si       0.00692325      -2.68890186       2.70706846       0.00000000
Si      -2.70324405      -2.69377257      -0.01230787       0.00000000
Si      -2.70682785       0.02443997       2.70731149       0.00000000
Si       2.72414412      -2.69510835      -0.04834962       0.00000000
