10
Lattice="16.28999089631971 0.0 0.0 0.0 16.28999089631971 0.0 0.0 0.0 34.71893929493243" Properties=species:S:1:pos:R:3:initial_magmoms:R:1 pbc="T T T"
Si       1.35654975       1.35791811      -1.35751129       0.00000000
Si      -1.35848826      -1.35754344      -1.35765016       0.00000000
Si       1.35899325      -1.36163223       1.35646972       0.00000000
Si      -1.35832536       1.35977517       1.36226778       0.00000000
Si       2.71326240      -2.71494190      -0.00149292       0.00000000
Si       2.71450044      -0.00030951      -2.71502257       0.00000000
Si      -0.00070047      -2.71507222      -2.71502257       0.00000000
Si      -2.71559187      -2.71515367      -0.00034719       0.00000000
Si      -0.00105885       2.71538010      -2.71554335       0.00000000
Si      -2.71696023       2.71396287      -0.00145820       0.00000000
