10
Lattice="16.28999089631971 0.0 0.0 0.0 16.28999089631971 0.0 0.0 0.0 34.71893929493243" Properties=species:S:1:pos:R:3:initial_magmoms:R:1 pbc="T T T"
Si       0.70094241       1.80264325      -1.41153398       0.00000000
Si      -1.82495241      -0.75386634      -1.47625012       0.00000000
Si       1.82514789      -1.95364245      -0.13512619       0.00000000
Si      -0.16299774      -1.13761119       3.26278358       0.00000000
Si       2.08016784       0.50408102      -2.95215306       0.00000000
Si      -0.58731966       2.82423802       2.25520468       0.00000000
Si      -2.77283493      -2.48888298      -0.06478558       0.00000000
Si      -0.64198890      -2.20840176      -2.96933894       0.00000000
Si       1.85420925       3.33756850      -0.07919394       0.00000000
Si       3.41068617      -0.92149176      -1.56658885       0.00000000
