10
Lattice="16.28999089631971 0.0 0.0 0.0 16.28999089631971 0.0 0.0 0.0 34.71893929493243" Properties=species:S:1:pos:R:3:initial_magmoms:R:1 pbc="T T T"
Si      -1.20450445       2.03457702       0.29382655       0.00000000
Si       2.37257497       0.02043092       0.54335170       0.00000000
Si      -1.41562285      -0.67179308       1.87912892       0.00000000
Si      -0.11698012      -1.59078596      -1.95575366       0.00000000
Si      -3.07689334       0.79720491       0.99962826       0.00000000
Si       2.06428672      -0.44283550       2.79595246       0.00000000
Si       0.34117613      -3.51333176      -0.69719141       0.00000000
Si      -2.46676768      -1.73889464      -2.03918332       0.00000000
Si      -0.13252892       2.97076332       2.13719494       0.00000000
Si      -1.00930138       3.07418853      -1.84135469       0.00000000
