10
Lattice="16.28999089631971 0.0 0.0 0.0 16.28999089631971 0.0 0.0 0.0 34.71893929493243" Properties=species:S:1:pos:R:3:initial_magmoms:R:1 pbc="T T T"
Si       1.36129014       1.34726445      -1.38632802       0.00000000
Si      -1.35174420      -1.36500426      -1.38552948       0.00000000
Si       1.31070969      -1.47009105       1.38115490       0.00000000
Si      -1.28576970       1.43267292       1.58419137       0.00000000
Si      -2.70508482       2.70927135       0.01371399       0.00000000
Si       2.71070487       2.72484459      -0.00628413       0.00000000
Si      -2.70816363      -2.74227489      -0.00666604       0.00000000
Si       2.71968066      -2.73310362      -0.02562259       0.00000000
Si       0.00583182       2.70539433      -2.74790142       0.00000000
Si      -2.71037907      -0.01081656      -2.74925546       0.00000000
