10
Lattice="16.28999089631971 0.0 0.0 0.0 16.28999089631971 0.0 0.0 0.0 34.71893929493243" Properties=species:S:1:pos:R:3:initial_magmoms:R:1 pbc="T T T"
Si       1.79792730       0.41346463       1.49031130       0.00000000
Si      -0.00853596      -2.37418509       0.05322416       0.00000000
Si       1.03651641       1.19776298      -1.81288515       0.00000000
Si      -2.21398367       0.96007559       0.14002156       0.00000000
Si       0.16943229       0.38505488       3.24587545       0.00000000
Si       1.10438055      -2.63645409      -2.01123456       0.00000000
Si      -1.44539541       3.22752955      -0.04680116       0.00000000
Si       1.39950648      -0.61306438      -3.23327247       0.00000000
Si       2.36537316       2.68344356       0.99973242       0.00000000
Si      -0.54843543       2.92940626      -2.27600134       0.00000000
