10
Lattice="16.28999089631971 0.0 0.0 0.0 16.28999089631971 0.0 0.0 0.0 34.71893929493243" Properties=species:S:1:pos:R:3:initial_magmoms:R:1 pbc="T T T"
Si       1.19865078       1.57693716      -1.48621446       0.00000000
Si      -1.58843790      -1.15305507      -1.55954091       0.00000000
Si       1.93575699      -1.26273564       1.09562618       0.00000000
Si      -0.96585039       0.88031160       2.23378308       0.00000000
Si       0.85322133       2.16997461       3.00499531       0.00000000
Si       2.91643128       0.78933195       2.46310181       0.00000000
Si       2.40803667       0.13911660      -3.15001640       0.00000000
Si       2.76146451      -2.85850404      -0.53817858       0.00000000
Si      -3.01070151      -2.67496461      -0.24442147       0.00000000
Si      -0.30266820      -2.58572799      -3.14373227       0.00000000
