10
Lattice="16.28999089631971 0.0 0.0 0.0 16.28999089631971 0.0 0.0 0.0 34.71893929493243" Properties=species:S:1:pos:R:3:initial_magmoms:R:1 pbc="T T T"
Si       0.40343814      -2.26681866      -0.55088572       0.00000000
Si      -2.09067489       0.19256409       1.11031230       0.00000000
Si       1.43627301       0.54040446       1.85374936       0.00000000
Si       0.64948230       1.46378682      -2.10035813       0.00000000
Si       2.24826435       2.59744050       1.05531747       0.00000000
Si      -2.73139317       2.36455866       0.74065955       0.00000000
Si      -1.04189211      -3.44715948       0.92598935       0.00000000
Si       3.17529567      -1.07517258       1.61963942       0.00000000
Si      -1.86530274      -0.46840266       3.31888942       0.00000000
Si       2.65807188      -2.76900678       0.04829407       0.00000000
