10
Lattice="16.28999089631971 0.0 0.0 0.0 16.28999089631971 0.0 0.0 0.0 34.71893929493243" Properties=species:S:1:pos:R:3:initial_magmoms:R:1 pbc="T T T"
Si       1.37916027       1.88928162       0.07079196       0.00000000
Si       0.74357334      -2.23474365      -0.40822552       0.00000000
Si      -1.44557460       0.49449924      -1.86503302       0.00000000
Si      -1.41659469      -0.12183291       1.97054394       0.00000000
Si      -1.66439817      -2.46778839       1.89131528       0.00000000
Si      -1.05215481      -2.96728866      -1.67706458       0.00000000
Si      -0.00221544       3.37287708       1.37303066       0.00000000
Si      -3.63205098       0.45985041      -0.85738469       0.00000000
Si       0.52233885      -3.42363672       1.57387984       0.00000000
Si      -3.38688648       1.12378194       1.40535401       0.00000000
