10
Lattice="16.28999089631971 0.0 0.0 0.0 16.28999089631971 0.0 0.0 0.0 34.71893929493243" Properties=species:S:1:pos:R:3:initial_magmoms:R:1 pbc="T T T"
Si      -1.29251376       1.38150603      -1.41538779       0.00000000
Si      -1.69999182      -0.86711670       1.42993503       0.00000000
Si       1.43575173      -1.35293337      -1.38112018       0.00000000
Si       1.17462303       1.63626534       1.41882497       0.00000000
Si      -2.47547727       2.83604145       0.07770103       0.00000000
Si      -2.72324817      -2.66220954       0.09384535       0.00000000
Si       2.76016131       2.66841603      -0.01263770       0.00000000
Si      -2.64780918       0.01273878      -2.78098859       0.00000000
Si       0.06820623      -2.70205488      -2.77595434       0.00000000
Si      -3.42335979       1.10102481       1.48916558       0.00000000
