10
Lattice="16.28999089631971 0.0 0.0 0.0 16.28999089631971 0.0 0.0 0.0 34.71893929493243" Properties=species:S:1:pos:R:3:initial_magmoms:R:1 pbc="T T T"
Si      -0.94506435       0.80314587       2.02026149       0.00000000
Si      -1.37738466      -1.85271057      -0.58824332       0.00000000
Si      -0.50316552       0.87786810      -2.16628943       0.00000000
Si       2.30710383       0.09629019       0.64973059       0.00000000
Si      -3.40292073      -1.32243849       0.46346338       0.00000000
Si      -2.59032503       2.31542802       1.26574908       0.00000000
Si      -3.61806113       0.88312977      -0.34694655       0.00000000
Si       2.29203558       0.22439475       3.04565121       0.00000000
Si       0.68906700       1.92347433       3.24726421       0.00000000
Si       0.10632483      -1.12795218      -3.70701266       0.00000000
