10
Lattice="16.28999089631971 0.0 0.0 0.0 16.28999089631971 0.0 0.0 0.0 34.71893929493243" Properties=species:S:1:pos:R:3:initial_magmoms:R:1 pbc="T T T"
Si      -0.73632429       0.38201679      -2.23649116       0.00000000
Si      -0.34165017       2.08060997       1.12246393       0.00000000
Si      -1.19112480      -1.93662036       0.74579795       0.00000000
Si       2.28296205      -0.75114819      -0.02350474       0.00000000
Si       0.10404423      -3.65273928      -0.17751804       0.00000000
Si      -0.52994628       3.59437940      -0.78669689       0.00000000
Si       2.12986863      -2.97719298       0.73104239       0.00000000
Si      -2.51403570       1.91395350       2.12129366       0.00000000
Si      -1.20619305      -1.80851580       3.14171857       0.00000000
Si      -0.14123430       2.52348620      -2.90281742       0.00000000
