10
Lattice="16.28999089631971 0.0 0.0 0.0 16.28999089631971 0.0 0.0 0.0 34.71893929493243" Properties=species:S:1:pos:R:3:initial_magmoms:R:1 pbc="T T T"
Si      -1.63413135      -1.12032846      -1.22700272       0.00000000
Si       1.60296858      -1.69907958      -0.20161299       0.00000000
Si      -1.11291651       0.26226900       2.06445872       0.00000000
Si       0.29512593       2.02338972      -1.22203791       0.00000000
Si      -1.10438055       2.63645409       2.01123456       0.00000000
Si       1.61803683      -1.82718414      -2.59753361       0.00000000
Si      -2.64453489      -2.38619178       0.49693246       0.00000000
Si      -1.81776852       2.22998112      -2.34096051       0.00000000
Si      -3.37858021      -0.50801994       1.73021931       0.00000000
Si      -0.68906700      -1.92347433      -3.24726421       0.00000000
