10
Lattice="16.28999089631971 0.0 0.0 0.0 16.28999089631971 0.0 0.0 0.0 34.71893929493243" Properties=species:S:1:pos:R:3:initial_magmoms:R:1 pbc="T T T"
Si      -1.34669430      -1.35337320       1.36330241       0.00000000
Si       1.36661697       1.35539316       1.36285106       0.00000000
Si       1.24639677      -1.38642235      -1.45565831       0.00000000
Si      -1.49700213       1.23000903      -1.39541050       0.00000000
Si       1.96092504       0.58313313      -2.71435045       0.00000000
Si       0.15654690       2.27999727      -2.68687404       0.00000000
Si      -2.37399057      -0.70581312      -2.57014279       0.00000000
Si      -0.63501678      -2.37993479      -2.68553372       0.00000000
Si      -2.70635544      -0.00159642       2.72067482       0.00000000
Si       0.00935046       2.71373481       2.72036235       0.00000000
