10
Lattice="16.28999089631971 0.0 0.0 0.0 16.28999089631971 0.0 0.0 0.0 34.71893929493243" Properties=species:S:1:pos:R:3:initial_magmoms:R:1 pbc="T T T"
Si       1.35966114      -1.35177678      -1.35737241       0.00000000
Si      -1.35604476      -1.35632332       1.35792791       0.00000000
Si      -1.35325917       1.35931905      -1.35778904       0.00000000
Si       1.35915615       1.35843939       1.35792791       0.00000000
Si       2.70635544       0.00159642      -2.72067482       0.00000000
Si      -2.71339272      -2.71447706       0.00086797       0.00000000
Si       2.71459818      -2.71351394      -0.00003472       0.00000000
Si       0.00114030      -2.71369804       2.71471010       0.00000000
Si      -2.71383255       0.00120546       2.71530032       0.00000000
Si       2.71601541       0.00180819       2.71498785       0.00000000
