10
Lattice="16.28999089631971 0.0 0.0 0.0 16.28999089631971 0.0 0.0 0.0 34.71893929493243" Properties=species:S:1:pos:R:3:initial_magmoms:R:1 pbc="T T T"
Si      -1.35583299       1.35352266      -1.35976802       0.00000000
Si       1.36047564      -1.36112995      -1.35705994       0.00000000
Si       1.35298224       1.37791856       1.35195625       0.00000000
Si      -1.37104785      -1.36725499       1.35171322       0.00000000
Si       0.07117101      -2.61866908       2.67148500       0.00000000
Si      -2.71010214       2.70683233      -0.00180539       0.00000000
Si       2.65408083       0.08105195       2.76758707       0.00000000
Si       2.71538010       2.71140982      -0.00104157       0.00000000
Si       0.00226431       2.71152385      -2.71623773       0.00000000
Si      -2.71261080      -0.00398238      -2.71651549       0.00000000
