10
Lattice="16.28999089631971 0.0 0.0 0.0 16.28999089631971 0.0 0.0 0.0 34.71893929493243" Properties=species:S:1:pos:R:3:initial_magmoms:R:1 pbc="T T T"
Si       0.38491641       0.21711475      -2.28839601       0.00000000
Si       1.70416206       0.28959710       1.56749155       0.00000000
Si      -2.06736390       0.54933464       0.99678130       0.00000000
Si       0.43030035      -2.50219191      -0.11675986       0.00000000
Si       1.62487863      -2.09604963       1.94971256       0.00000000
Si       0.09695808       3.33170410      -0.24383125       0.00000000
Si       2.10245256      -1.51224861      -2.26134994       0.00000000
Si      -2.66245389      -1.59213477       1.66310756       0.00000000
Si      -1.86380406      -3.14670576       0.02471990       0.00000000
Si      -2.24845983       2.91839422       0.20275872       0.00000000
