10
Lattice="16.28999089631971 0.0 0.0 0.0 16.28999089631971 0.0 0.0 0.0 34.71893929493243" Properties=species:S:1:pos:R:3:initial_magmoms:R:1 pbc="T T T"
Si       1.61223759      -1.25501092       1.18866574       0.00000000
Si       1.61567478       1.67734220      -0.57435573       0.00000000
Si      -1.04267403       1.72292162       1.30558982       0.00000000
Si      -1.87487149      -1.22328615      -0.97789419       0.00000000
Si      -1.93913716      -0.13898139       2.47112679       0.00000000
Si      -2.64562795      -1.97864597       1.13249862       0.00000000
Si       3.64003308       0.33882548      -0.55158010       0.00000000
Si       0.82227033       2.70077774       2.39176619       0.00000000
Si       3.17521422      -1.95414581      -0.42065490       0.00000000
Si       1.39892004       2.08242563      -2.83195602       0.00000000
