10
Lattice="16.28999089631971 0.0 0.0 0.0 16.28999089631971 0.0 0.0 0.0 34.71893929493243" Properties=species:S:1:pos:R:3:initial_magmoms:R:1 pbc="T T T"
Si       0.39978918      -0.37739925      -2.25433671       0.00000000
Si      -0.91561203      -1.80717255       1.23415625       0.00000000
Si      -1.73897379       1.67412167       0.11539093       0.00000000
Si       1.88141355       0.99351244       1.22987541       0.00000000
Si       0.15762204       2.33934011      -2.39269176       0.00000000
Si      -2.07790353      -0.36057866       2.69976502       0.00000000
Si       0.63501678       2.37993479       2.68553372       0.00000000
Si      -2.45532654      -2.81044107      -0.36236177       0.00000000
Si       2.60798013      -1.05318990      -2.61867746       0.00000000
Si      -3.22942734       1.45083464      -1.67369684       0.00000000
