10
Lattice="16.28999089631971 0.0 0.0 0.0 16.28999089631971 0.0 0.0 0.0 34.71893929493243" Properties=species:S:1:pos:R:3:initial_magmoms:R:1 pbc="T T T"
Si      -1.65354903      -1.04998824       1.29146354       0.00000000
Si      -1.36037790      -0.10518453      -1.91702102       0.00000000
Si       1.14673455       1.72141317       1.27898901       0.00000000
Si       1.80437814      -1.69686414      -0.02747642       0.00000000
Si      -0.63394164      -2.32059195      -2.39135144       0.00000000
Si      -0.15654690      -2.27999727       2.68687404       0.00000000
Si       0.56780424       2.84974002      -2.10714204       0.00000000
Si       2.57333130       0.44455410       2.68902661       0.00000000
Si      -0.43541541       1.23746985      -3.58741956       0.00000000
Si       1.69170021      -1.86815349      -2.95175015       0.00000000
