10
Lattice="16.28999089631971 0.0 0.0 0.0 16.28999089631971 0.0 0.0 0.0 34.71893929493243" Properties=species:S:1:pos:R:3:initial_magmoms:R:1 pbc="T T T"
Si       0.31133448      -2.02659003      -1.09885504       0.00000000
Si       1.85992704       0.02275713       1.39906988       0.00000000
Si       0.27337878       1.52200728      -1.75282135       0.00000000
Si      -2.32184628      -0.09446571       0.43707697       0.00000000
Si      -1.20515049      -1.59643629      -2.80765275       0.00000000
Si      -0.57001968      -3.58716714       0.50189727       0.00000000
Si       3.56226462       0.91166985      -0.07915923       0.00000000
Si       1.33995024       1.64517597       3.02683354       0.00000000
Si      -3.16943127      -0.66868821      -1.79049142       0.00000000
Si       2.55427200       1.97618877      -2.02380282       0.00000000
