10
Lattice="16.28999089631971 0.0 0.0 0.0 16.28999089631971 0.0 0.0 0.0 34.71893929493243" Properties=species:S:1:pos:R:3:initial_magmoms:R:1 pbc="T T T"
Si       1.93593618       1.30420998      -0.45290882       0.00000000
Si      -1.53197676       1.47574368       1.09125159       0.00000000
Si      -0.28800720      -1.40151015      -1.94714336       0.00000000
Si       0.59513886      -1.62987966       1.72692101       0.00000000
Si      -1.73050299      -2.08231812       2.28731972       0.00000000
Si      -2.45693925       0.13308930       2.76165013       0.00000000
Si       2.11092336      -1.45384992      -2.74807502       0.00000000
Si      -2.17126152      -0.36281088      -3.06235103       0.00000000
Si       2.58123195       0.83536749      -2.67665812       0.00000000
Si       1.31551524       3.55367979      -0.69663591       0.00000000
