10
Lattice="16.28999089631971 0.0 0.0 0.0 16.28999089631971 0.0 0.0 0.0 34.71893929493243" Properties=species:S:1:pos:R:3:initial_magmoms:R:1 pbc="T T T"
Si       1.36780614       1.43229825      -1.21592737       0.00000000
Si      -1.00321965      -1.61227017      -1.48027752       0.00000000
Si       1.31997870       0.69488253       1.98582028       0.00000000
Si      -3.04678386       0.05548374       0.03152481       0.00000000
Si      -0.31728033       3.04968348      -0.63532223       0.00000000
Si      -0.31040595       2.68074756       1.97630729       0.00000000
Si      -2.44960875       1.96032231      -1.36775338       0.00000000
Si      -1.98348669       0.14437827      -2.83841375       0.00000000
Si      -1.92818214      -2.95492455       0.19012102       0.00000000
Si      -0.56780424      -2.84974002       2.10714204       0.00000000
