10
Lattice="16.28999089631971 0.0 0.0 0.0 16.28999089631971 0.0 0.0 0.0 34.71893929493243" Properties=species:S:1:pos:R:3:initial_magmoms:R:1 pbc="T T T"
Si      -1.44958194       0.71705322       1.66484351       0.00000000
Si      -1.01884176      -1.00036890      -1.90697353       0.00000000
Si      -0.19543113       1.93986207      -1.39549383       0.00000000
Si       1.81804545      -0.85297698       1.39577158       0.00000000
Si       1.71862758       2.89663893      -0.54057419       0.00000000
Si      -2.53358370      -1.30388418       2.07490913       0.00000000
Si      -0.36514035       0.73570527      -3.43669085       0.00000000
Si       1.88196741       0.83686617       3.03343014       0.00000000
Si      -2.26764945       2.79469611       0.91401131       0.00000000
Si       0.16443126      -2.95094979      -2.25329514       0.00000000
