10
Lattice="16.28999089631971 0.0 0.0 0.0 16.28999089631971 0.0 0.0 0.0 34.71893929493243" Properties=species:S:1:pos:R:3:initial_magmoms:R:1 pbc="T T T"
Si       1.26596106       1.84728600       0.47558030       0.00000000
Si       0.00268785       0.19468179      -2.31006064       0.00000000
Si       0.81806751      -2.07764289       0.75083220       0.00000000
Si      -1.21710735       1.85820030       1.10586827       0.00000000
Si       2.07221832      -0.85483404      -2.30950513       0.00000000
Si      -1.25245665       0.74541411       3.14987753       0.00000000
Si      -3.33337383       1.36335897       0.10061554       0.00000000
Si       2.26764945      -2.79469611      -0.91401131       0.00000000
Si       1.87408305      -1.73939733       2.81841563       0.00000000
Si      -2.02313655      -0.48086451      -3.21862107       0.00000000
