10
Lattice="16.28999089631971 0.0 0.0 0.0 16.28999089631971 0.0 0.0 0.0 34.71893929493243" Properties=species:S:1:pos:R:3:initial_magmoms:R:1 pbc="T T T"
Si       1.06642485       1.67765823       1.32254031       0.00000000
Si      -1.73812671      -0.91390158       1.39333921       0.00000000
Si       1.63038465      -1.98586503       0.00951299       0.00000000
Si      -0.00687438       0.36893592      -2.61162951       0.00000000
Si       0.31040595      -2.68074756      -1.97630729       0.00000000
Si       2.30798349       0.32834124       2.82131956       0.00000000
Si      -0.41805027      -2.38725063       2.80519261       0.00000000
Si       1.67821209      -1.24844931      -3.19223466       0.00000000
Si       2.76012873       2.72753244       0.09742140       0.00000000
Si       3.53069460      -1.06890093       1.33730975       0.00000000
