10
Lattice="16.28999089631971 0.0 0.0 0.0 16.28999089631971 0.0 0.0 0.0 34.71893929493243" Properties=species:S:1:pos:R:3:initial_magmoms:R:1 pbc="T T T"
Si       1.35728280       1.35700587      -1.35761544       0.00000000
Si      -1.35708732      -1.35809730      -1.35699050       0.00000000
Si      -1.35799956       1.35902583       1.35699050       0.00000000
Si       1.35674523      -1.36047564       1.36060127       0.00000000
Si      -0.01571985       2.70837540       2.71030079       0.00000000
Si       0.00017919       2.71433754      -2.71460594       0.00000000
Si      -2.71378368       2.71544526      -0.00079854       0.00000000
Si      -2.71396287      -0.00079821      -2.71530032       0.00000000
Si       2.71523349      -0.00117288      -2.71453650       0.00000000
Si      -2.71451673      -2.71572219       0.00020831       0.00000000
