10
Lattice="16.28999089631971 0.0 0.0 0.0 16.28999089631971 0.0 0.0 0.0 34.71893929493243" Properties=species:S:1:pos:R:3:initial_magmoms:R:1 pbc="T T T"
Si      -0.71329023      -1.83625767      -1.26779750       0.00000000
Si       1.86961959       0.86346336      -1.17169542       0.00000000
Si      -1.71753615       1.72936336      -0.02704607       0.00000000
Si      -1.67215221      -0.98994330       2.14459008       0.00000000
Si      -2.15550909      -0.58484358      -2.58756927       0.00000000
Si       0.56852100       2.16032997      -2.58732624       0.00000000
Si      -2.10245256       1.51224861       2.26134994       0.00000000
Si      -1.66614120      -3.06781425       0.41398886       0.00000000
Si      -3.51984546       0.71864964      -1.17238980       0.00000000
Si      -0.69757038       3.58185239      -1.15308606       0.00000000
