10
Lattice="16.28999089631971 0.0 0.0 0.0 16.28999089631971 0.0 0.0 0.0 34.71893929493243" Properties=species:S:1:pos:R:3:initial_magmoms:R:1 pbc="T T T"
Si      -0.95285097      -1.23155658       1.68178636       0.00000000
Si      -1.44221886       1.25141409      -1.31977178       0.00000000
Si       0.71329023       1.83625767       1.26779750       0.00000000
Si       1.30966713      -1.45829709      -1.29796827       0.00000000
Si      -0.95886198       0.84631437       3.41238757       0.00000000
Si       2.58290982       2.69972103       0.09610208       0.00000000
Si      -0.07117101       2.61866908      -2.67148500       0.00000000
Si       2.64795579      -0.10292022      -2.67134612       0.00000000
Si      -2.80655523       2.55490731       0.09540770       0.00000000
Si      -2.64552858      -2.71541268       0.37555498       0.00000000
