10
Lattice="16.28999089631971 0.0 0.0 0.0 16.28999089631971 0.0 0.0 0.0 34.71893929493243" Properties=species:S:1:pos:R:3:initial_magmoms:R:1 pbc="T T T"
Si       0.47030859       2.28921741       0.07141690       0.00000000
Si       0.12671991      -0.70100757      -2.26218319       0.00000000
Si       1.86983136      -1.31092146       0.81908967       0.00000000
Si      -2.39893056       0.05233977       0.80093166       0.00000000
Si      -0.97492392       2.95213896      -1.69973606       0.00000000
Si      -0.17498718       2.75805990       2.29516620       0.00000000
Si      -0.45494712       1.32972012      -3.32749972       0.00000000
Si      -1.39603671      -2.53605815      -2.38786582       0.00000000
Si      -2.11092336       1.45384992       2.74807502       0.00000000
Si       3.56170817      -1.05640650      -0.85859985       0.00000000
