10
Lattice="16.28999089631971 0.0 0.0 0.0 16.28999089631971 0.0 0.0 0.0 34.71893929493243" Properties=species:S:1:pos:R:3:initial_magmoms:R:1 pbc="T T T"
Si      -1.35697329      -1.35783666       1.35765016       0.00000000
Si       1.35816476       1.35759231       1.35803207       0.00000000
Si      -1.35744570       1.35948195      -1.35806679       0.00000000
Si       1.35997621      -1.35907470      -1.36240666       0.00000000
Si      -2.70930393       0.00936675      -2.71859168       0.00000000
Si      -2.71389771       2.71511946       0.00055550       0.00000000
Si       0.00087171      -2.71505430       2.71446707       0.00000000
Si       2.71667420       2.71295289       0.00072910       0.00000000
Si      -2.71451673       0.00008145       2.71536976       0.00000000
Si       0.00034477       2.71505430       2.71523088       0.00000000
