10
Lattice="16.28999089631971 0.0 0.0 0.0 16.28999089631971 0.0 0.0 0.0 34.71893929493243" Properties=species:S:1:pos:R:3:initial_magmoms:R:1 pbc="T T T"
Si      -1.35452979       1.35891180      -1.36327463       0.00000000
Si       1.36065713      -1.35643572      -1.36369126       0.00000000
Si      -1.36546038      -1.33656192       1.37980086       0.00000000
Si       1.35686319       1.36021500       1.39247328       0.00000000
Si      -2.71013472       2.71238274      -0.00822839       0.00000000
Si      -2.71476108      -2.71443528      -0.00548560       0.00000000
Si       2.71628324       2.71551042       0.00045135       0.00000000
Si      -2.71287144       0.00073305      -2.72023041       0.00000000
Si       2.71766789      -2.71577106      -0.00402740       0.00000000
Si       0.00251700      -2.71440270      -2.72113311       0.00000000
