10
Lattice="16.28999089631971 0.0 0.0 0.0 16.28999089631971 0.0 0.0 0.0 34.71893929493243" Properties=species:S:1:pos:R:3:initial_magmoms:R:1 pbc="T T T"
Si      -0.19520307      -1.03961151       2.13518124       0.00000000
Si       2.29684832       0.64848861       0.50099457       0.00000000
Si      -2.33458506      -0.64055538       0.32906629       0.00000000
Si      -1.56748896       1.72731015       0.85887760       0.00000000
Si       1.23537400      -0.22362912      -2.20618151       0.00000000
Si       2.11871717       2.51572986      -0.92088566       0.00000000
Si       1.00930138      -3.07418853       1.84135469       0.00000000
Si       2.28267602       1.33221249       2.75553959       0.00000000
Si      -1.38465000      -2.96910174      -2.31419219       0.00000000
Si       0.05866029      -1.65773556      -3.67534897       0.00000000
