10
Lattice="16.28999089631971 0.0 0.0 0.0 16.28999089631971 0.0 0.0 0.0 34.71893929493243" Properties=species:S:1:pos:R:3:initial_magmoms:R:1 pbc="T T T"
Si      -1.33951041       1.19457828      -1.52982148       0.00000000
Si      -1.22810310      -1.53015228       1.41715846       0.00000000
Si       1.36254447      -1.49651343      -1.49847026       0.00000000
Si       0.78343497       2.05987050       1.35598365       0.00000000
Si      -2.62462851       2.60152929      -0.20359197       0.00000000
Si       2.65608450       2.66603769       0.01072816       0.00000000
Si      -2.61524547      -2.78635563      -0.09651871       0.00000000
Si       0.01787013       2.55243123      -2.88649951       0.00000000
Si       2.70187569      -2.85027759      -0.09276906       0.00000000
Si      -2.69966025      -0.15602562      -2.88063200       0.00000000
