10
Lattice="16.28999089631971 0.0 0.0 0.0 16.28999089631971 0.0 0.0 0.0 34.71893929493243" Properties=species:S:1:pos:R:3:initial_magmoms:R:1 pbc="T T T"
Si       1.64025869      -0.74497428      -1.52905766       0.00000000
Si      -0.57140433      -1.75422123       1.49669959       0.00000000
Si      -1.86067638       0.34562493      -1.46100850       0.00000000
Si       1.04018396       2.18834973       1.09913279       0.00000000
Si       0.71864217      -0.99768105       3.56414414       0.00000000
Si       1.10166405       0.22913514      -3.64128967       0.00000000
Si       0.61711474      -3.74415876       0.46908785       0.00000000
Si      -1.21538061      -0.12321756      -3.68475781       0.00000000
Si       2.30018777       2.99841885      -0.92928765       0.00000000
Si       1.94811688      -3.07762083      -1.47125059       0.00000000
