10
Lattice="16.28999089631971 0.0 0.0 0.0 16.28999089631971 0.0 0.0 0.0 34.71893929493243" Properties=species:S:1:pos:R:3:initial_magmoms:R:1 pbc="T T T"
Si       1.11899268       0.43083792       2.05831347       0.00000000
Si      -2.23811568      -0.46608948       0.77517019       0.00000000
Si      -0.10329489       1.84924080      -1.63883901       0.00000000
Si       1.23725808      -1.95035283      -1.37785659       0.00000000
Si      -2.26848024       0.82976373      -2.54521214       0.00000000
Si       1.76305041      -1.79615169       2.48348183       0.00000000
Si      -2.06840646       0.73806732       2.81636721       0.00000000
Si       2.70776845       1.98775467      -1.49371376       0.00000000
Si      -3.88026171      -0.11259648      -1.01910559       0.00000000
Si      -0.42878538       4.00370733      -0.28601478       0.00000000
