10
Lattice="16.28999089631971 0.0 0.0 0.0 16.28999089631971 0.0 0.0 0.0 34.71893929493243" Properties=species:S:1:pos:R:3:initial_magmoms:R:1 pbc="T T T"
Si      -0.48307995      -2.20998285       0.68656741       0.00000000
Si       2.36161084       0.22972158       0.40225386       0.00000000
Si      -0.77537142      -0.68488047      -2.39890645       0.00000000
Si      -1.23725808       1.95035283       1.37785659       0.00000000
Si       2.10234409       1.68997347      -2.35113316       0.00000000
Si      -0.66490893      -1.74821022       3.06544102       0.00000000
Si       3.20312618      -1.42156314      -1.09319585       0.00000000
Si       2.57025642      -0.40304718       2.70925922       0.00000000
Si      -2.61374679       0.98792334      -2.58319468       0.00000000
Si       0.52579233       0.15420114       3.86133843       0.00000000
