10
Lattice="16.28999089631971 0.0 0.0 0.0 16.28999089631971 0.0 0.0 0.0 34.71893929493243" Properties=species:S:1:pos:R:3:initial_magmoms:R:1 pbc="T T T"
Si      -1.91405871      -0.95677686      -0.85491964       0.00000000
Si      -0.14250492       2.34593919      -0.14137560       0.00000000
Si       0.96309738      -0.36629694       2.16274809       0.00000000
Si       1.27334043      -1.26400626      -1.61297338       0.00000000
Si      -1.71862758      -2.89663893       0.54057419       0.00000000
Si       3.27538373      -0.28541709      -1.02698680       0.00000000
Si       3.17813732      -0.87325803       1.30303724       0.00000000
Si       0.99781137       2.93698926      -2.05029339       0.00000000
Si      -2.72031597       1.74534318       1.93016579       0.00000000
Si       0.64062054       3.32107488       1.85819339       0.00000000
