10
Lattice="16.28999089631971 0.0 0.0 0.0 16.28999089631971 0.0 0.0 0.0 34.71893929493243" Properties=species:S:1:pos:R:3:initial_magmoms:R:1 pbc="T T T"
Si      -0.98547984      -1.71437589      -1.24017999       0.00000000
Si       1.25952799      -1.36845774       1.50496270       0.00000000
Si      -1.43200503       1.32509376       1.45233223       0.00000000
Si       1.98033199       0.79102611      -1.19504444       0.00000000
Si       0.62436312      -3.46561605      -0.94191355       0.00000000
Si       2.57589602      -2.73233799       0.19555801       0.00000000
Si       2.68682277       2.63069069       0.14358373       0.00000000
Si       3.57701426      -0.99215874      -0.94187605       0.00000000
Si      -2.67918372      -2.76425010      -0.01506108       0.00000000
Si       2.63371900      -0.03153744       2.84629148       0.00000000
