10
Lattice="16.28999089631971 0.0 0.0 0.0 16.28999089631971 0.0 0.0 0.0 34.71893929493243" Properties=species:S:1:pos:R:3:initial_magmoms:R:1 pbc="T T T"
Si       1.35723393      -1.35536058      -1.35813623       0.00000000
Si      -1.35809730      -1.35550719       1.35740713       0.00000000
Si       1.35733167       1.35966114       1.35751129       0.00000000
Si      -1.35881406       1.35995436      -1.36514946       0.00000000
Si       2.69368330       0.02655270      -2.69651389       0.00000000
Si       2.71290402      -2.71191033       0.00006944       0.00000000
Si       0.00006516      -2.71290402       2.71405044       0.00000000
Si       2.71514721       0.00192222       2.71405044       0.00000000
Si       2.71402613       2.71631164       0.00079854       0.00000000
Si      -2.71604799       0.00267156       2.71432819       0.00000000
