10
Lattice="16.28999089631971 0.0 0.0 0.0 16.28999089631971 0.0 0.0 0.0 34.71893929493243" Properties=species:S:1:pos:R:3:initial_magmoms:R:1 pbc="T T T"
Si       1.35703845      -1.35684043      -1.35709466       0.00000000
Si       1.35751086       1.35750267       1.35761544       0.00000000
Si      -1.35736262      -1.35864862       1.35664331       0.00000000
Si      -1.35782851       1.35789688      -1.35719881       0.00000000
Si      -0.00068418      -2.71392775      -2.71471010       0.00000000
Si       2.71459818      -2.71412323      -0.00010416       0.00000000
Si       2.71505430      -0.00056962      -2.71411988       0.00000000
Si      -2.71576385      -0.00079266      -2.71349494       0.00000000
Si      -0.00083079       2.71421695      -2.71512673       0.00000000
Si       2.71461447       2.71511290       0.00031247       0.00000000
