10
Lattice="16.28999089631971 0.0 0.0 0.0 16.28999089631971 0.0 0.0 0.0 34.71893929493243" Properties=species:S:1:pos:R:3:initial_magmoms:R:1 pbc="T T T"
Si      -1.35651985      -1.35679410       1.35709466       0.00000000
Si      -1.35746467       1.35736425      -1.35754600       0.00000000
Si       1.35781999      -1.35746199      -1.35719881       0.00000000
Si       1.35749094       1.35881406       1.35737241       0.00000000
Si      -2.71212478      -0.00332316       2.71214090       0.00000000
Si      -0.00034477       2.71410948       2.71273112       0.00000000
Si      -2.71406329       2.71423980      -0.00055550       0.00000000
Si      -2.71424248       0.00006516      -2.71467538       0.00000000
Si      -0.00122443       2.71523349      -2.71453650       0.00000000
Si      -2.71486150      -2.71497285       0.00013888       0.00000000
