10
Lattice="16.28999089631971 0.0 0.0 0.0 16.28999089631971 0.0 0.0 0.0 34.71893929493243" Properties=species:S:1:pos:R:3:initial_magmoms:R:1 pbc="T T T"
Si      -1.35680225       1.35900954      -1.36344823       0.00000000
Si       1.35751086      -1.35892809      -1.36462867       0.00000000
Si      -1.35942005      -1.35529542       1.39202193       0.00000000
Si       1.36280511       1.36115982       1.39834078       0.00000000
Si      -2.71463795       2.71430496      -0.00808952       0.00000000
Si       2.71614573      -2.71311579      -0.00090269       0.00000000
Si       2.71622718       2.71440270      -0.00131932       0.00000000
Si      -2.71628324      -2.71551042      -0.00045135       0.00000000
Si      -2.71429318       0.00019548      -2.72082064       0.00000000
Si       0.00084708       2.71533123      -2.72071648       0.00000000
