10
Lattice="16.28999089631971 0.0 0.0 0.0 16.28999089631971 0.0 0.0 0.0 34.71893929493243" Properties=species:S:1:pos:R:3:initial_magmoms:R:1 pbc="T T T"
Si      -1.28431989       1.32313896      -1.50239350       0.00000000
Si      -1.70791039      -0.87508251       1.41309634       0.00000000
Si       1.02325635       1.79509284       1.33608969       0.00000000
Si       1.43803233      -1.39308822      -1.47013959       0.00000000
Si      -2.53080935       2.74010832      -0.03166369       0.00000000
Si      -2.71297637      -2.64376926       0.02006756       0.00000000
Si       2.72324817       2.66220954      -0.09384535       0.00000000
Si      -3.39554366       0.98389971       1.42882403       0.00000000
Si      -2.63941073      -0.03994308      -2.87656988       0.00000000
Si       2.85734745      -2.66968665       0.10033779       0.00000000
