10
Lattice="16.28999089631971 0.0 0.0 0.0 16.28999089631971 0.0 0.0 0.0 34.71893929493243" Properties=species:S:1:pos:R:3:initial_magmoms:R:1 pbc="T T T"
Si       1.35472527      -1.35481161      -1.35452545       0.00000000
Si      -1.35699773      -1.35632006       1.35792791       0.00000000
Si       1.35793440       1.35861858       1.35744185       0.00000000
Si      -1.35519931       1.35739683      -1.36219834       0.00000000
Si       0.00812871      -2.69965115      -2.67118641       0.00000000
Si      -2.71430381       0.00141723       2.71467538       0.00000000
Si       0.00083079      -2.71421695       2.71512673       0.00000000
Si      -2.71493306      -2.71500960       0.00163179       0.00000000
Si       2.71419093       2.71585251      -0.00138876       0.00000000
Si       2.71588509      -2.71478657       0.00100685       0.00000000
