10
Lattice="16.28999089631971 0.0 0.0 0.0 16.28999089631971 0.0 0.0 0.0 34.71893929493243" Properties=species:S:1:pos:R:3:initial_magmoms:R:1 pbc="T T T"
Si      -1.31720940       1.36026387      -1.42253989       0.00000000
Si       0.24516450       0.66393153       2.26273870       0.00000000
Si       2.18647638       0.03464883      -1.00764834       0.00000000
Si      -0.96446574      -2.20610583       0.15210376       0.00000000
Si      -1.91867204      -2.32189515      -2.01161647       0.00000000
Si       2.21545629      -0.58168332       2.82792862       0.00000000
Si      -2.86190865      -0.08729811      -2.37324914       0.00000000
Si       3.63205098      -0.45985041       0.85738469       0.00000000
Si       1.15978284       2.90945916       2.08542897       0.00000000
Si       2.16712386      -1.82863395      -2.50882667       0.00000000
