10
Lattice="16.28999089631971 0.0 0.0 0.0 16.28999089631971 0.0 0.0 0.0 34.71893929493243" Properties=species:S:1:pos:R:3:initial_magmoms:R:1 pbc="T T T"
Si       1.35749457      -1.35676315      -1.35903892       0.00000000
Si      -1.35701076       1.35933534      -1.35966386       0.00000000
Si       1.35834165       1.34089506       1.38243950       0.00000000
Si      -1.35247236      -1.35288124       1.38823756       0.00000000
Si       2.71327869      -2.71599002       0.00135404       0.00000000
Si      -2.71400264      -2.71635287       0.00427043       0.00000000
Si      -0.00001629      -2.71426582      -2.71665436       0.00000000
Si       2.71459818       0.00084708      -2.71634189       0.00000000
Si      -2.71515089       0.00136836      -2.71710571       0.00000000
Si      -0.00050499       2.71601541      -2.71668908       0.00000000
