10
Lattice="16.28999089631971 0.0 0.0 0.0 16.28999089631971 0.0 0.0 0.0 34.71893929493243" Properties=species:S:1:pos:R:3:initial_magmoms:R:1 pbc="T T T"
Si      -1.37419101      -1.33692030      -1.34132878       0.00000000
Si       1.36921360       1.36819710      -1.31683455       0.00000000
Si      -1.35384818       1.35283864       1.35598365       0.00000000
Si       1.36123150      -1.36029645       1.35476849       0.00000000
Si       2.64525817      -0.03134196      -2.58847197       0.00000000
Si      -0.05782298      -2.70080055      -2.65073347       0.00000000
Si       0.05310377       2.66222813      -2.70270776       0.00000000
Si      -2.71054264      -0.00381186       2.71269640       0.00000000
Si       0.00408716       2.71152819       2.71227977       0.00000000
Si      -2.70992362       2.71454998      -0.00218729       0.00000000
