10
Lattice="16.28999089631971 0.0 0.0 0.0 16.28999089631971 0.0 0.0 0.0 34.71893929493243" Properties=species:S:1:pos:R:3:initial_magmoms:R:1 pbc="T T T"
Si       1.35247236       1.35288124      -1.38823756       0.00000000
Si      -1.36153027      -1.36347163      -1.38396713       0.00000000
Si      -1.39132468       1.37832622       1.40129189       0.00000000
Si       1.52363139      -1.25332914       1.46857723       0.00000000
Si       2.71081401       2.69377630      -0.00579807       0.00000000
Si       2.70659490      -2.70786456      -0.02451158       0.00000000
Si      -2.72767483      -2.71599327       0.00222201       0.00000000
Si       2.70996693      -0.00388191      -2.74727648       0.00000000
Si      -0.00453839       2.71221658      -2.74790142       0.00000000
Si      -2.73065590       2.73209038      -0.00440931       0.00000000
