10
Lattice="16.28999089631971 0.0 0.0 0.0 16.28999089631971 0.0 0.0 0.0 34.71893929493243" Properties=species:S:1:pos:R:3:initial_magmoms:R:1 pbc="T T T"
Si       1.24648946      -1.41696936      -1.47072981       0.00000000
Si      -1.47272598       1.29547854      -1.45083585       0.00000000
Si      -0.86473431      -1.75620861       1.46048772       0.00000000
Si       1.83069773       1.02312603       1.42698392       0.00000000
Si       2.53080935      -2.74010832       0.03166369       0.00000000
Si       2.60624834      -0.06516000      -2.84317025       0.00000000
Si      -2.68719435      -2.76933258      -0.07940226       0.00000000
Si      -0.10658142       2.64800018      -2.83702499       0.00000000
Si       2.77858025       2.75814267       0.01551937       0.00000000
Si       3.55406570      -0.94501548       1.36775338       0.00000000
