10
Lattice="16.28999089631971 0.0 0.0 0.0 16.28999089631971 0.0 0.0 0.0 34.46413024517268" Properties=species:S:1:pos:R:3:initial_magmoms:R:1 pbc="T T T"
Si      -1.26966119       1.42890179       1.34906467       0.00000000
Si       1.35934023       1.37387416      -1.35940188       0.00000000
Si       1.45476705      -1.32009177       1.34291626       0.00000000
Si      -1.90404266      -0.89143441      -1.29840685       0.00000000
Si      -2.61767498       0.05196836       2.72371897       0.00000000
Si       0.09945534      -2.66432628       2.72344325       0.00000000
Si      -0.96517435      -1.92860472      -3.16746010       0.00000000
Si       2.59733136       0.07537872      -2.85990203       0.00000000
Si       2.79343038      -2.66243664      -0.21997088       0.00000000
Si       0.09548058       2.76611530       2.72371897       0.00000000
