10
Lattice="16.28999089631971 0.0 0.0 0.0 16.28999089631971 0.0 0.0 0.0 34.46413024517268" Properties=species:S:1:pos:R:3:initial_magmoms:R:1 pbc="T T T"
Si       1.29235086      -1.35784564       1.44369978       0.00000000
Si       1.58457717       1.01896231      -1.47562878       0.00000000
Si      -1.35298224      -1.22923428      -1.56585593       0.00000000
Si      -1.40292738       1.35601870       1.44514382       0.00000000
Si       0.36326700      -1.81623793      -3.27434721       0.00000000
Si       0.26997417       2.40359602      -2.88404072       0.00000000
Si       2.70368388       2.62409746      -0.06978301       0.00000000
Si       2.53591317      -2.86456459       0.03063174       0.00000000
Si      -2.75993325       2.67487339       0.04902870       0.00000000
Si       2.65650804       0.00884221       2.81413911       0.00000000
