10
Lattice="16.28999089631971 0.0 0.0 0.0 16.28999089631971 0.0 0.0 0.0 34.46413024517268" Properties=species:S:1:pos:R:3:initial_magmoms:R:1 pbc="T T T"
Si       1.85302008      -1.51125914       0.25338043       0.00000000
Si       0.75372201       2.30641965       0.22401697       0.00000000
Si      -1.37782449      -0.05637969       2.08008374       0.00000000
Si      -0.31801338      -0.55703655      -2.49816834       0.00000000
Si       0.93274911      -2.97307880      -1.30543305       0.00000000
Si       1.97400591      -1.74026396       2.52563627       0.00000000
Si       0.33912522      -0.52686747       3.67163817       0.00000000
Si      -2.22192994       1.18903968      -2.82512973       0.00000000
Si      -0.96309738       3.61546776      -0.87725046       0.00000000
Si       3.85036956      -0.31421781      -0.19906493       0.00000000
