10
Lattice="16.28999089631971 0.0 0.0 0.0 16.28999089631971 0.0 0.0 0.0 34.46413024517268" Properties=species:S:1:pos:R:3:initial_magmoms:R:1 pbc="T T T"
Si      -0.12098583       0.22900482      -2.27225584       0.00000000
Si      -0.55936602      -1.96276974       1.07304129       0.00000000
Si       2.06454573       0.54448673       0.90750998       0.00000000
Si      -1.63488069       1.21339649       1.14600190       0.00000000
Si      -1.89066627      -0.74518915       2.55682632       0.00000000
Si       3.10785507      -1.64676003       0.70961684       0.00000000
Si       1.87636365       1.42604615      -2.72470120       0.00000000
Si      -1.97400591       1.74026396      -2.52563627       0.00000000
Si       1.38609981      -2.48580906       2.32753634       0.00000000
Si      -1.34978940      -3.38368128      -0.61980326       0.00000000
