10
Lattice="16.28999089631971 0.0 0.0 0.0 16.28999089631971 0.0 0.0 0.0 34.46413024517268" Properties=species:S:1:pos:R:3:initial_magmoms:R:1 pbc="T T T"
Si      -1.25480241      -1.58599766       1.33789828       0.00000000
Si       0.44269704      -0.97588503      -2.21725106       0.00000000
Si       2.00787282       0.78429834       1.22568301       0.00000000
Si      -0.36403263       2.28468879      -1.26666089       0.00000000
Si      -1.36638891       2.20846788       0.80101576       0.00000000
Si       0.41873445       2.21718303       2.52443002       0.00000000
Si       2.13596109      -2.48093931      -1.50735851       0.00000000
Si       1.82550627       2.30395986      -2.15886879       0.00000000
Si       3.35230281       1.27907451      -0.65633526       0.00000000
Si      -3.49451940       0.95882940       1.05339673       0.00000000
