10
Lattice="16.28999089631971 0.0 0.0 0.0 16.28999089631971 0.0 0.0 0.0 34.46413024517268" Properties=species:S:1:pos:R:3:initial_magmoms:R:1 pbc="T T T"
Si       1.33848414       1.34959392      -1.37315511       0.00000000
Si      -1.43075070       1.30404708       1.32862743       0.00000000
Si      -1.37780820      -1.36555812      -1.37322404       0.00000000
Si       1.27739664      -1.29697722       1.60957917       0.00000000
Si      -2.54587288      -0.34490817       2.72201299       0.00000000
Si      -0.64195632      -2.09098440       3.04897438       0.00000000
Si       2.70039330       2.69560404       0.01406137       0.00000000
Si       2.68073127      -2.71766396       0.02367687       0.00000000
Si       2.69374698      -0.00614133      -2.73128385       0.00000000
Si      -2.74655264       2.69441487      -0.02143670       0.00000000
