10
Lattice="16.28999089631971 0.0 0.0 0.0 16.28999089631971 0.0 0.0 0.0 34.46413024517268" Properties=species:S:1:pos:R:3:initial_magmoms:R:1 pbc="T T T"
Si      -1.33848414      -1.34959392       1.37315511       0.00000000
Si       1.35526284      -1.35573525      -1.35812874       0.00000000
Si      -1.35726651       1.35992178      -1.35878356       0.00000000
Si       1.36190916       1.34601012       1.38721648       0.00000000
Si       2.71205694      -2.71021617       0.00492837       0.00000000
Si      -0.00154755      -2.71278999      -2.71484445       0.00000000
Si       2.71383255       0.00218286      -2.71487891       0.00000000
Si      -2.71629234      -2.71515204      -0.00006893       0.00000000
Si      -2.71611315       0.00141723      -2.71536141       0.00000000
Si      -2.71710684       2.71552671       0.00341195       0.00000000
