10
Lattice="16.28999089631971 0.0 0.0 0.0 16.28999089631971 0.0 0.0 0.0 34.46413024517268" Properties=species:S:1:pos:R:3:initial_magmoms:R:1 pbc="T T T"
Si       1.67066982       0.59588820       1.57377092       0.00000000
Si      -0.96518250       2.12472099      -0.45485785       0.00000000
Si      -1.49117031      -1.72473633       0.89348308       0.00000000
Si       0.91342917      -0.56415528      -2.20422361       0.00000000
Si      -1.76984334       1.81936494      -2.61531199       0.00000000
Si       2.43843381      -1.47378888       2.35266070       0.00000000
Si       0.50940459       2.17966716       2.97856412       0.00000000
Si       0.90264519       3.61264959      -0.47036671       0.00000000
Si      -3.37634685      -1.53728730      -0.60450118       0.00000000
Si      -0.38993373      -3.88039203       0.78116441       0.00000000
