10
Lattice="16.28999089631971 0.0 0.0 0.0 16.28999089631971 0.0 0.0 0.0 34.46413024517268" Properties=species:S:1:pos:R:3:initial_magmoms:R:1 pbc="T T T"
Si       1.23489603       1.53324738       1.44353577       0.00000000
Si      -1.44076905      -1.16160732       1.63432241       0.00000000
Si      -1.78512336      -0.00871515      -1.72341426       0.00000000
Si       1.58913837      -1.43288469      -1.29874701       0.00000000
Si      -0.41873445      -2.21718303      -2.52443002       0.00000000
Si      -2.91152799      -2.50468524       0.31396840       0.00000000
Si      -0.78276708       0.06750576      -3.79109091       0.00000000
Si      -0.08376318      -2.48046201       3.03043753       0.00000000
Si       2.72697858       2.84765490       0.05390193       0.00000000
Si       2.61684189       0.24177618       3.00171166       0.00000000
