10
Lattice="16.28999089631971 0.0 0.0 0.0 16.28999089631971 0.0 0.0 0.0 34.46413024517268" Properties=species:S:1:pos:R:3:initial_magmoms:R:1 pbc="T T T"
Si       1.19749419      -1.58902434      -1.29323275       0.00000000
Si      -1.86958701      -1.23077466       0.79146919       0.00000000
Si       1.02107349       0.33448257       2.19433240       0.00000000
Si      -0.33031233       1.97845308      -1.40127785       0.00000000
Si      -0.92520684      -2.06117370      -2.52122486       0.00000000
Si       3.18831138       1.38637674      -0.28863725       0.00000000
Si      -1.58713470      -3.14849862      -0.49542215       0.00000000
Si      -2.50505991      -0.29370870      -2.67479711       0.00000000
Si       2.99602422      -0.18472860      -2.13529531       0.00000000
Si       1.74263904       3.18070395      -0.93235864       0.00000000
