10
Lattice="16.28999089631971 0.0 0.0 0.0 16.28999089631971 0.0 0.0 0.0 34.46413024517268" Properties=species:S:1:pos:R:3:initial_magmoms:R:1 pbc="T T T"
Si      -1.91125683       0.97966431       0.92105440       0.00000000
Si       0.54931509      -2.18139390       0.71943912       0.00000000
Si      -1.20743109      -0.79568505      -1.86826708       0.00000000
Si       1.97478783       1.29896460       0.12431219       0.00000000
Si      -1.70233758      -2.86107786       0.76420805       0.00000000
Si      -2.83253778      -1.04501979       1.74626399       0.00000000
Si      -2.14718490       1.20378213      -2.54242031       0.00000000
Si      -1.05735132       2.38987332       2.54721083       0.00000000
Si       0.46884249      -1.34861652      -3.42739074       0.00000000
Si       3.43181430       0.46138167      -1.48185504       0.00000000
