10
Lattice="16.28999089631971 0.0 0.0 0.0 16.28999089631971 0.0 0.0 0.0 34.46413024517268" Properties=species:S:1:pos:R:3:initial_magmoms:R:1 pbc="T T T"
Si      -1.35031068      -1.34701358       1.37053583       0.00000000
Si       1.36199061       1.36511829       1.36574532       0.00000000
Si      -1.30313484       1.26824166      -1.51338629       0.00000000
Si       1.37200896      -1.38243293      -1.37389953       0.00000000
Si       2.31150213       0.50254650      -2.47382735       0.00000000
Si       0.60300693       2.15619327      -2.71165449       0.00000000
Si      -2.42224155      -0.33689349      -2.91923206       0.00000000
Si      -2.71446786      -2.71370143       0.00009650       0.00000000
Si       2.72212416      -2.70611024       0.01685642       0.00000000
Si      -2.70914103       2.72240109      -0.02718532       0.00000000
