10
Lattice="16.28999089631971 0.0 0.0 0.0 16.28999089631971 0.0 0.0 0.0 34.46413024517268" Properties=species:S:1:pos:R:3:initial_magmoms:R:1 pbc="T T T"
Si       1.35381303       1.35073422       1.38067174       0.00000000
Si      -1.36477620      -1.36304946       1.37863835       0.00000000
Si       1.36984239      -1.41221268      -1.38412849       0.00000000
Si      -1.34889671       1.40916645      -1.44535750       0.00000000
Si       2.71783989       2.69399133      -0.00352913       0.00000000
Si      -2.72991797      -2.70026298       0.00398406       0.00000000
Si      -2.73767883       2.70539433      -0.00349122       0.00000000
Si      -0.00478926       2.70863604       2.73845584       0.00000000
Si       2.70954828      -0.00560376       2.73962762       0.00000000
Si       2.72684826      -2.73106737       0.01198663       0.00000000
