10
Lattice="16.28999089631971 0.0 0.0 0.0 16.28999089631971 0.0 0.0 0.0 34.46413024517268" Properties=species:S:1:pos:R:3:initial_magmoms:R:1 pbc="T T T"
Si      -0.23519502      -2.25121284      -0.83510081       0.00000000
Si      -0.97182882       1.38243456      -1.73937116       0.00000000
Si       2.40235146       0.42653736      -0.08205914       0.00000000
Si      -0.91342917       0.56415528       2.20422361       0.00000000
Si      -2.68327251       2.38352022      -0.41108838       0.00000000
Si      -1.87861167       2.68887627       1.74936576       0.00000000
Si       2.03579388      -3.01840668      -0.87887028       0.00000000
Si       2.78743077       1.18341963      -2.44464552       0.00000000
Si       0.82362240       2.42616744      -3.02498733       0.00000000
Si       3.70866285      -1.53450171      -0.03353362       0.00000000
