10
Lattice="16.28999089631971 0.0 0.0 0.0 16.28999089631971 0.0 0.0 0.0 34.46413024517268" Properties=species:S:1:pos:R:3:initial_magmoms:R:1 pbc="T T T"
Si       0.35360703       0.10339263      -2.31492246       0.00000000
Si      -0.10643886       2.17305342       0.95303713       0.00000000
Si       1.89508086      -1.35114147       0.52861113       0.00000000
Si      -2.12077881      -1.10270268       0.47081475       0.00000000
Si      -2.44402128       2.35349775       0.72939926       0.00000000
Si       0.88560585      -3.45224196       0.72233411       0.00000000
Si      -1.35301482      -3.17237976       1.24970453       0.00000000
Si      -1.00778085       1.86517242      -3.02981231       0.00000000
Si      -2.88880344       1.91405871      -1.57332289       0.00000000
Si      -3.28204404       0.48107628       1.87560794       0.00000000
