10
Lattice="16.28999089631971 0.0 0.0 0.0 16.28999089631971 0.0 0.0 0.0 34.46413024517268" Properties=species:S:1:pos:R:3:initial_magmoms:R:1 pbc="T T T"
Si       0.92235935       1.75879872      -1.24795861       0.00000000
Si      -1.38878212       1.29622788       1.44186628       0.00000000
Si       1.34889671      -1.40916645       1.44535750       0.00000000
Si      -1.14503224      -1.32367653      -1.76047498       0.00000000
Si      -2.63237019      -2.54547540      -0.07975004       0.00000000
Si      -2.72654268       2.58564654      -0.16944299       0.00000000
Si       2.67827474       2.66820426       0.10904112       0.00000000
Si      -0.86647813       3.40022799      -1.55596472       0.00000000
Si      -0.01392632       2.65942395       2.82303086       0.00000000
Si       2.70270974      -0.05843223       2.82602924       0.00000000
