10
Lattice="16.28999089631971 0.0 0.0 0.0 16.28999089631971 0.0 0.0 0.0 34.46413024517268" Properties=species:S:1:pos:R:3:initial_magmoms:R:1 pbc="T T T"
Si       1.35656604      -1.35739683       1.36316051       0.00000000
Si      -1.36125756       1.35923760       1.36298818       0.00000000
Si      -1.36992384      -1.36780614      -1.36531107       0.00000000
Si       1.38059379       1.35001746      -1.37899334       0.00000000
Si      -0.11313405       2.55753000      -2.73827662       0.00000000
Si       2.71063971      -2.71122615       0.00641033       0.00000000
Si      -2.71169856       2.71529865       0.00744426       0.00000000
Si      -2.71355562      -2.71433754       0.00358427       0.00000000
Si       2.71467963       2.71588509       0.00130964       0.00000000
Si       2.71319724       0.00099369       2.71977282       0.00000000
