10
Lattice="16.28999089631971 0.0 0.0 0.0 16.28999089631971 0.0 0.0 0.0 34.46413024517268" Properties=species:S:1:pos:R:3:initial_magmoms:R:1 pbc="T T T"
Si      -1.35044100       1.35606105      -1.35554393       0.00000000
Si      -1.35514881      -1.35817875       1.35712928       0.00000000
Si       1.35899325       1.35690813       1.35706035       0.00000000
Si       1.36125756      -1.35923760      -1.36298818       0.00000000
Si      -0.01557324       2.69342118      -2.72619005       0.00000000
Si      -2.71362078       2.71249677      -0.00068928       0.00000000
Si      -2.71274112      -0.00123804       2.71374160       0.00000000
Si       0.00213399       2.71437012       2.71415517       0.00000000
Si       0.00166158      -2.71503801       2.71398285       0.00000000
Si      -2.71311579      -2.71614573      -0.00031018       0.00000000
