10
Lattice="16.28999089631971 0.0 0.0 0.0 16.28999089631971 0.0 0.0 0.0 34.46413024517268" Properties=species:S:1:pos:R:3:initial_magmoms:R:1 pbc="T T T"
Si       1.35198855       1.35729909       1.34889235       0.00000000
Si      -1.35775521       1.35488817      -1.35916266       0.00000000
Si       1.35733167      -1.36117611      -1.35681910       0.00000000
Si      -1.35189081      -1.37443617       1.38745773       0.00000000
Si      -2.70974376       2.70464499      -0.00082714       0.00000000
Si       2.71388142       2.71005327       0.00068928       0.00000000
Si       0.00053757       2.71065600      -2.71570605       0.00000000
Si      -2.71368594      -0.00346977      -2.71546480       0.00000000
Si       2.71494027      -0.00314397      -2.71546480       0.00000000
Si       0.00003258      -2.71826343      -2.71463766       0.00000000
