10
Lattice="16.28999089631971 0.0 0.0 0.0 16.28999089631971 0.0 0.0 0.0 34.46413024517268" Properties=species:S:1:pos:R:3:initial_magmoms:R:1 pbc="T T T"
Si      -0.41220216      -0.06654465       2.30713356       0.00000000
Si      -1.95501177      -0.65819745      -1.23667708       0.00000000
Si       0.67188105       1.97293077      -1.25197916       0.00000000
Si       1.84459815      -1.68329457      -0.04642321       0.00000000
Si      -0.68867604      -1.99402632      -2.69571685       0.00000000
Si       2.04610545       0.72454662      -2.68989240       0.00000000
Si      -2.60454294      -0.80497035       2.20546432       0.00000000
Si       0.61035372      -3.33096291      -1.26135341       0.00000000
Si       2.03836770       2.29943124       1.99861049       0.00000000
Si      -2.79683010      -2.37607569       0.35880626       0.00000000
