10
Lattice="16.28999089631971 0.0 0.0 0.0 16.28999089631971 0.0 0.0 0.0 34.46413024517268" Properties=species:S:1:pos:R:3:initial_magmoms:R:1 pbc="T T T"
Si      -0.63819333       2.11610358      -0.74035886       0.00000000
Si       1.88102259      -0.04888629      -1.45648942       0.00000000
Si       0.44478216       0.43943904       2.30272215       0.00000000
Si      -1.86782769      -1.48792860       0.01550887       0.00000000
Si      -2.09521980       2.95368651       0.86580836       0.00000000
Si       0.76802463      -3.01676139       2.04413764       0.00000000
Si      -0.90264519      -3.61264959       0.47036671       0.00000000
Si      -0.39324060      -1.43298243       3.44893083       0.00000000
Si       2.78236458       0.25899471       2.52636002       0.00000000
Si      -1.78026894       1.79753634      -2.80789765       0.00000000
