10
Lattice="16.28999089631971 0.0 0.0 0.0 16.28999089631971 0.0 0.0 0.0 34.46413024517268" Properties=species:S:1:pos:R:3:initial_magmoms:R:1 pbc="T T T"
Si      -0.97316460      -1.70031762      -1.32645619       0.00000000
Si       0.39332205      -1.37381715       1.92413347       0.00000000
Si       1.67676228       1.02423375      -1.38497631       0.00000000
Si      -1.86039945       1.69073488      -0.08429931       0.00000000
Si       1.92303450       2.01324267       2.01384365       0.00000000
Si      -2.34031914      -0.26700939      -2.74531076       0.00000000
Si       1.81343538      -0.01873350       3.15967323       0.00000000
Si       0.40832514       2.46006923      -2.76960798       0.00000000
Si      -2.34841527       1.92527667       2.17837550       0.00000000
Si       3.28020327       1.95396988      -0.00637587       0.00000000
