10
Lattice="16.28999089631971 0.0 0.0 0.0 16.28999089631971 0.0 0.0 0.0 34.46413024517268" Properties=species:S:1:pos:R:3:initial_magmoms:R:1 pbc="T T T"
Si      -1.62052920       0.15143184       1.63846013       0.00000000
Si       1.32752097       1.92275757      -0.00372213       0.00000000
Si       0.78403770      -2.00187810       0.94866018       0.00000000
Si      -1.26635202       0.32892768      -1.97596755       0.00000000
Si      -0.44287623       3.34777812       0.66298684       0.00000000
Si       0.74000583       0.64531206      -3.41667239       0.00000000
Si      -2.63339253       2.29353426       0.69590011       0.00000000
Si      -0.23286555       0.23118768       3.63403778       0.00000000
Si       2.16011916       2.00039571      -2.18113263       0.00000000
Si      -3.10717089      -1.70098551       1.21868679       0.00000000
