10
Lattice="16.28999089631971 0.0 0.0 0.0 16.28999089631971 0.0 0.0 0.0 34.46413024517268" Properties=species:S:1:pos:R:3:initial_magmoms:R:1 pbc="T T T"
Si       1.26635202      -0.32892768       1.97596755       0.00000000
Si      -0.44421201      -2.04959151      -1.13218178       0.00000000
Si      -1.93552893       1.35281934       0.42518421       0.00000000
Si       2.00635785       0.31638438      -1.44070484       0.00000000
Si      -1.36704051       1.96460658       2.67186765       0.00000000
Si       2.59387299       1.59382989       1.97224542       0.00000000
Si      -0.35417718      -0.17749584       3.61442768       0.00000000
Si      -3.73941837      -0.25311402       0.36021929       0.00000000
Si       3.42647118       1.67146803      -0.20516508       0.00000000
Si      -0.73537947       3.61547820      -1.18646281       0.00000000
