10
Lattice="16.28999089631971 0.0 0.0 0.0 16.28999089631971 0.0 0.0 0.0 34.46413024517268" Properties=species:S:1:pos:R:3:initial_magmoms:R:1 pbc="T T T"
Si      -1.63758483      -1.55427777      -0.74466688       0.00000000
Si      -1.17237501       2.05907229       0.47057350       0.00000000
Si       1.46989557       0.12584025      -1.92220347       0.00000000
Si       0.87768891      -0.91186533       2.09018174       0.00000000
Si       0.37504467       0.97598277       3.50848488       0.00000000
Si      -0.32143428      -3.48299748      -1.29447346       0.00000000
Si      -1.80415008       1.73508048       2.76947013       0.00000000
Si       0.08223192       0.04608441      -3.91778112       0.00000000
Si       0.21162339       3.99027690       0.59836656       0.00000000
Si      -2.70034443       2.74897008      -1.29492149       0.00000000
