10
Lattice="16.28999089631971 0.0 0.0 0.0 16.28999089631971 0.0 0.0 0.0 34.46413024517268" Properties=species:S:1:pos:R:3:initial_magmoms:R:1 pbc="T T T"
Si       0.93886830      -1.03717031      -1.86905325       0.00000000
Si      -0.88368363      -1.85007389       1.24355371       0.00000000
Si       1.90404266       0.89143441       1.29840685       0.00000000
Si      -1.10035692      -0.25377116      -2.52545744       0.00000000
Si      -2.06697294      -0.41674134       2.67078996       0.00000000
Si       0.63438147       2.32033620       2.64747152       0.00000000
Si      -2.47759497       2.79191541       0.18010620       0.00000000
Si      -3.41708814       0.90693598       1.28003401       0.00000000
Si      -2.64163527      -2.87588777      -0.11727499       0.00000000
Si       3.26338289       2.26530858      -0.06099504       0.00000000
