10
Lattice="16.28999089631971 0.0 0.0 0.0 16.28999089631971 0.0 0.0 0.0 34.46413024517268" Properties=species:S:1:pos:R:3:initial_magmoms:R:1 pbc="T T T"
Si      -0.15433146       0.42611382       2.25964196       0.00000000
Si       1.13321385       1.63424538      -1.23157638       0.00000000
Si      -1.62165321      -1.26337095      -1.26542018       0.00000000
Si      -0.86736105      -1.85114673       2.55134652       0.00000000
Si       2.44139859       0.22921659      -2.64160813       0.00000000
Si      -0.25182711      -2.49946104      -2.66442340       0.00000000
Si       1.26288225      -2.94628759       2.11902823       0.00000000
Si       2.60138268       2.91740868       0.36197696       0.00000000
Si      -0.28437453       2.94769179      -2.63747243       0.00000000
Si      -2.98789551       0.24136893      -2.62061946       0.00000000
