10
Lattice="16.28999089631971 0.0 0.0 0.0 16.28999089631971 0.0 0.0 0.0 34.46413024517268" Properties=species:S:1:pos:R:3:initial_magmoms:R:1 pbc="T T T"
Si      -2.30298246       0.37217763      -0.45720141       0.00000000
Si       0.55322469      -1.97131806      -1.23895171       0.00000000
Si       1.26242517       1.94020416      -0.61473703       0.00000000
Si       0.06931395      -0.04338027       2.43547805       0.00000000
Si      -2.82769965       1.60814880       1.46669081       0.00000000
Si      -0.32381262       3.69201447      -0.55649262       0.00000000
Si       2.34009827      -3.11617016      -0.09615498       0.00000000
Si       0.14330313      -2.18884495       3.26554709       0.00000000
Si      -2.12022495       0.27228735       3.30780014       0.00000000
Si      -1.17134874      -3.64184846      -1.05770475       0.00000000
