10
Lattice="16.28999089631971 0.0 0.0 0.0 16.28999089631971 0.0 0.0 0.0 34.46413024517268" Properties=species:S:1:pos:R:3:initial_magmoms:R:1 pbc="T T T"
Si      -1.35615879       1.35480672       1.35985195       0.00000000
Si      -1.35762489      -1.35698958      -1.35716374       0.00000000
Si       1.35738054       1.35754344      -1.35730160       0.00000000
Si       1.35736425      -1.35668007       1.35930052       0.00000000
Si       2.71448415       2.71365336      -0.00003446       0.00000000
Si       2.71469592      -2.71363055      -0.00013786       0.00000000
Si      -2.71479366      -2.71444505       0.00020678       0.00000000
Si      -0.00048870      -2.71479529      -2.71477552       0.00000000
Si      -2.71485882       0.00000000      -2.71487891       0.00000000
Si       2.71487511       0.00065160      -2.71498231       0.00000000
