10
Lattice="16.28999089631971 0.0 0.0 0.0 16.28999089631971 0.0 0.0 0.0 34.46413024517268" Properties=species:S:1:pos:R:3:initial_magmoms:R:1 pbc="T T T"
Si       1.77824313       0.78169194      -1.40024393       0.00000000
Si      -1.94066028       0.24420339      -1.42019867       0.00000000
Si       0.51528921      -2.29700403       0.62442146       0.00000000
Si      -0.16224840       1.34456031       2.17051767       0.00000000
Si       2.16626768      -2.70959715      -1.05860082       0.00000000
Si       1.12790561       0.07003071      -3.52016823       0.00000000
Si      -1.01507877       0.89956638      -3.47050539       0.00000000
Si       3.47974667      -0.78317433      -1.16102827       0.00000000
Si       1.83357212      -1.77072300       2.91528794       0.00000000
Si      -2.53348596       1.58933385       2.47380219       0.00000000
