10
Lattice="16.28999089631971 0.0 0.0 0.0 16.28999089631971 0.0 0.0 0.0 34.46413024517268" Properties=species:S:1:pos:R:3:initial_magmoms:R:1 pbc="T T T"
Si      -1.96415046       0.71710209      -1.16433683       0.00000000
Si      -0.78081228      -0.21160710       2.32553742       0.00000000
Si       1.29987684       2.21452776       0.09577587       0.00000000
Si       0.58777578      -2.12608935      -1.79441041       0.00000000
Si       0.92768292      -1.86525387       2.56336456       0.00000000
Si      -0.01055592       1.70592138       3.62519225       0.00000000
Si      -3.77623377      -0.82528398      -1.17247037       0.00000000
Si       0.62582922       3.75025122      -1.56877362       0.00000000
Si      -1.71566280       1.43697348      -3.45892544       0.00000000
Si       0.57016629      -1.09488348      -3.94293995       0.00000000
