10
Lattice="16.28999089631971 0.0 0.0 0.0 16.28999089631971 0.0 0.0 0.0 34.46413024517268" Properties=species:S:1:pos:R:3:initial_magmoms:R:1 pbc="T T T"
Si      -0.67404762       1.53572346      -1.66454949       0.00000000
Si       2.37123756      -0.24477354      -0.30328452       0.00000000
Si      -0.47447883       1.18407123       2.11985537       0.00000000
Si      -1.29987684      -2.21452776      -0.09577587       0.00000000
Si      -1.31043276      -0.50860638       3.52941638       0.00000000
Si      -3.26402730      -1.49742567      -1.26011270       0.00000000
Si      -0.95930181       0.42681429      -3.71675174       0.00000000
Si       2.97577153      -1.76560794       1.72513747       0.00000000
Si       2.53348596      -1.58933385      -2.47380219       0.00000000
Si      -2.85040791       2.34289296      -1.22296035       0.00000000
