10
Lattice="16.28999089631971 0.0 0.0 0.0 16.28999089631971 0.0 0.0 0.0 34.46413024517268" Properties=species:S:1:pos:R:3:initial_magmoms:R:1 pbc="T T T"
Si       1.85263678       0.91883745       1.08517268       0.00000000
Si       1.31104966      -1.32305751      -1.42678133       0.00000000
Si      -1.37386555       1.38618126      -1.42137045       0.00000000
Si      -1.23285931      -1.33591032       1.59713762       0.00000000
Si       0.52807244       2.33768016       2.38140380       0.00000000
Si       3.43248985      -0.84862755       1.23874493       0.00000000
Si      -2.70102814      -2.61907362       0.00358427       0.00000000
Si       2.62685161      -2.71342530      -0.07671720       0.00000000
Si      -0.03277219      -2.66782959      -2.78060205       0.00000000
Si       2.67897961       0.04764825      -2.77508778       0.00000000
