10
Lattice="16.28999089631971 0.0 0.0 0.0 16.28999089631971 0.0 0.0 0.0 34.46413024517268" Properties=species:S:1:pos:R:3:initial_magmoms:R:1 pbc="T T T"
Si      -1.56643011      -1.74047247      -0.04666446       0.00000000
Si      -0.05536971       1.55582532      -1.76304803       0.00000000
Si       2.01743898      -0.65135565      -1.03230467       0.00000000
Si       0.18614583       0.83235384       2.20508521       0.00000000
Si      -1.47396807      -0.05885577      -3.03070838       0.00000000
Si       1.33714903      -2.77596261      -1.70566522       0.00000000
Si       3.53914001       0.05914899       0.56231706       0.00000000
Si       2.51656784       1.09670796       2.44912586       0.00000000
Si      -3.28064310      -0.98414406       1.35285572       0.00000000
Si      -1.10289816       2.87433792       2.13450264       0.00000000
