10
Lattice="16.28999089631971 0.0 0.0 0.0 16.28999089631971 0.0 0.0 0.0 34.46413024517268" Properties=species:S:1:pos:R:3:initial_magmoms:R:1 pbc="T T T"
Si      -0.40715226       1.66664619       1.56225990       0.00000000
Si       2.12752287      -0.92747115       0.14774781       0.00000000
Si      -0.08307900       1.36234899      -1.97655344       0.00000000
Si      -1.24635279      -2.09093553       0.12083131       0.00000000
Si       0.19937331      -0.55537497      -3.26344478       0.00000000
Si       1.91619270      -1.86442308      -2.16217735       0.00000000
Si      -2.84191172      -1.35063648      -1.42667793       0.00000000
Si      -3.49567829       0.87474042      -1.16002881       0.00000000
Si       1.13130792       3.48053769       0.98543343       0.00000000
Si      -2.66176061       1.50394167       2.30158483       0.00000000
