10
Lattice="16.28999089631971 0.0 0.0 0.0 16.28999089631971 0.0 0.0 0.0 34.46413024517268" Properties=species:S:1:pos:R:3:initial_magmoms:R:1 pbc="T T T"
Si      -0.46405323      -1.95069492       1.14169388       0.00000000
Si      -1.04355369       0.25150131      -2.05564866       0.00000000
Si       2.25165267       0.67968396      -0.04476893       0.00000000
Si      -1.13020020       1.81605807       0.98205594       0.00000000
Si       0.49490649       2.06539281      -2.63247513       0.00000000
Si       1.70233758       2.86107786      -0.76420805       0.00000000
Si      -3.29816204       0.08879679      -1.31632373       0.00000000
Si       3.12163641       0.48689181       2.10276115       0.00000000
Si      -3.44439737       1.53277497       0.48766772       0.00000000
Si      -0.45843318      -3.80676123      -0.29649508       0.00000000
