10
Lattice="16.28999089631971 0.0 0.0 0.0 16.28999089631971 0.0 0.0 0.0 34.46413024517268" Properties=species:S:1:pos:R:3:initial_magmoms:R:1 pbc="T T T"
Si       1.35727140       1.35702216      -1.35809428       0.00000000
Si      -1.35740932       1.35423657       1.36147176       0.00000000
Si      -1.35789631      -1.35806472      -1.35812874       0.00000000
Si       1.35588675      -1.35925389       1.36050677       0.00000000
Si      -2.69695841      -0.02072088       2.71422409       0.00000000
Si       2.71408179       0.00009774      -2.71574052       0.00000000
Si      -0.00038119       2.71440270      -2.71580945       0.00000000
Si       2.71572708      -2.71485882      -0.00168874       0.00000000
Si      -0.00081124      -2.71536381      -2.71577498       0.00000000
Si      -2.71546385      -0.00068418      -2.71580945       0.00000000
