10
Lattice="16.28999089631971 0.0 0.0 0.0 16.28999089631971 0.0 0.0 0.0 34.46413024517268" Properties=species:S:1:pos:R:3:initial_magmoms:R:1 pbc="T T T"
Si       1.92735787      -1.28254428      -0.01985135       0.00000000
Si       0.68028995       2.12460696       0.67336055       0.00000000
Si      -0.03267937       1.07336439      -2.18988652       0.00000000
Si      -1.48524142      -1.77015285       0.79667328       0.00000000
Si      -2.90357914       1.03549014       1.65900076       0.00000000
Si      -1.33714903       2.77596261       1.70566522       0.00000000
Si       1.54190389       2.96849412      -1.35347608       0.00000000
Si      -3.09295039      -1.79497881      -0.92460420       0.00000000
Si       1.29188497      -0.34547832      -3.48611765       0.00000000
Si      -2.45172712      -1.03935087       2.77443296       0.00000000
