10
Lattice="16.28999089631971 0.0 0.0 0.0 16.28999089631971 0.0 0.0 0.0 34.46413024517268" Properties=species:S:1:pos:R:3:initial_magmoms:R:1 pbc="T T T"
Si       0.93975381      -1.99946718       0.67415323       0.00000000
Si      -1.52170103      -0.71050464      -1.59462173       0.00000000
Si       1.59513309       1.51519806      -0.79164151       0.00000000
Si      -1.02257217       1.03755897       1.88680879       0.00000000
Si       0.23592807      -0.22411782       3.46347470       0.00000000
Si       2.14718490      -1.20378213       2.54242031       0.00000000
Si      -3.53914001      -0.05914899      -0.56231706       0.00000000
Si       0.24288390       2.29601034      -2.74668932       0.00000000
Si      -0.66008709       0.13338252      -3.62145837       0.00000000
Si       2.61602739      -2.55239865      -0.88497043       0.00000000
