10
Lattice="16.28999089631971 0.0 0.0 0.0 16.28999089631971 0.0 0.0 0.0 34.46413024517268" Properties=species:S:1:pos:R:3:initial_magmoms:R:1 pbc="T T T"
Si       0.39397365      -1.84321350       1.38039258       0.00000000
Si      -0.48011517      -0.25762635      -2.27804582       0.00000000
Si      -2.30121988       0.27637614       0.40695268       0.00000000
Si       1.91348856       1.50338781       0.06551635       0.00000000
Si       0.44116578       1.76705775      -3.10325541       0.00000000
Si      -0.78294627       3.53665674      -0.48935646       0.00000000
Si      -2.77626302       2.22273792      -0.90823373       0.00000000
Si       2.53798200      -2.60395650       0.54829015       0.00000000
Si       1.29507129       3.17726676      -1.47709898       0.00000000
Si       1.84982724       2.35602270       2.25112932       0.00000000
