10
Lattice="16.28999089631971 0.0 0.0 0.0 16.28999089631971 0.0 0.0 0.0 34.46413024517268" Properties=species:S:1:pos:R:3:initial_magmoms:R:1 pbc="T T T"
Si      -1.42835348       1.23659019       1.37732527       0.00000000
Si      -1.36589762      -1.34481185      -1.35712928       0.00000000
Si       1.34618279       1.36814823      -1.35640553       0.00000000
Si       1.25955257      -1.17927220       1.65066044       0.00000000
Si       0.17811812       2.38879818       2.73883150       0.00000000
Si      -0.67432455      -1.98714284       3.01568201       0.00000000
Si       2.08203467       0.64272195       3.06579288       0.00000000
Si      -2.54780228      -0.50770066       2.75613250       0.00000000
Si       2.68442258      -2.68458290       0.02767471       0.00000000
Si       2.70284657       0.01144210      -2.71425856       0.00000000
