10
Lattice="16.28999089631971 0.0 0.0 0.0 16.28999089631971 0.0 0.0 0.0 34.46413024517268" Properties=species:S:1:pos:R:3:initial_magmoms:R:1 pbc="T T T"
Si       1.35721293       1.35487188       1.35702589       0.00000000
Si      -1.35761235       1.35739683      -1.35730160       0.00000000
Si      -1.35933909      -1.35700587       1.35633660       0.00000000
Si       1.35773096      -1.35827649      -1.35740499       0.00000000
Si      -2.71512321      -0.00045612       2.71201839       0.00000000
Si       2.71421066       2.71473731       0.00020678       0.00000000
Si       0.00273297       2.71441899       2.71470659       0.00000000
Si      -2.71481370       2.71439335      -0.00013786       0.00000000
Si       2.71515548      -0.00185706      -2.71470659       0.00000000
Si      -2.71502547      -0.00128691      -2.71501677       0.00000000
