10
Lattice="16.28999089631971 0.0 0.0 0.0 16.28999089631971 0.0 0.0 0.0 34.46413024517268" Properties=species:S:1:pos:R:3:initial_magmoms:R:1 pbc="T T T"
Si       2.18147046      -0.87829164      -0.11238759       0.00000000
Si      -1.65592315      -1.67762565       0.30893664       0.00000000
Si      -0.30072806       1.88915197       1.73234047       0.00000000
Si      -0.16486946       0.27793998      -2.61145200       0.00000000
Si       1.27849947      -3.04091946      -0.98715663       0.00000000
Si      -1.76692321       2.97048869       0.26999215       0.00000000
Si      -3.50511508      -0.21532122       0.29504758       0.00000000
Si      -2.03834719       1.75738216      -2.87100151       0.00000000
Si      -3.39551596       1.81665495      -0.85078199       0.00000000
Si       0.41688553      -3.88480662       1.03968000       0.00000000
