10
Lattice="16.28999089631971 0.0 0.0 0.0 16.28999089631971 0.0 0.0 0.0 34.31052061344573" Properties=species:S:1:pos:R:3:initial_magmoms:R:1 pbc="T T T"
Si      -1.12905013      -1.10659599       1.73089811       0.00000000
Si      -1.81513606       0.09878256      -1.50283595       0.00000000
Si      -0.80561706       2.25079486       0.37360747       0.00000000
Si       2.35102167      -0.38962422      -0.56753064       0.00000000
Si      -2.03783583       0.87383048       2.60142513       0.00000000
Si      -2.63250377       2.27088043      -1.10370144       0.00000000
Si       0.54959202      -2.53871505       2.56557061       0.00000000
Si       2.75301000       1.14355867      -2.34011606       0.00000000
Si      -1.05186973       0.26386542      -3.64408812       0.00000000
Si      -3.34273148      -1.67368347      -1.39293929       0.00000000
