10
Lattice="16.28999089631971 0.0 0.0 0.0 16.28999089631971 0.0 0.0 0.0 34.31052061344573" Properties=species:S:1:pos:R:3:initial_magmoms:R:1 pbc="T T T"
Si       1.12905013       1.10659599      -1.73089811       0.00000000
Si      -0.90878571       1.98042647       0.87052702       0.00000000
Si       1.67864215      -1.43211906       0.83467250       0.00000000
Si      -1.99042690      -1.33020882      -0.85731746       0.00000000
Si      -2.23311532       0.59536692       2.45459801       0.00000000
Si       1.29149401      -2.90862837      -1.26732841       0.00000000
Si       0.15222028      -2.52843606       2.37328547       0.00000000
Si      -0.68608593       1.20537855      -3.23373406       0.00000000
Si       0.32343306       3.35739085      -1.35729064       0.00000000
Si      -1.09921729      -3.49681140      -0.75119496       0.00000000
