10
Lattice="16.28999089631971 0.0 0.0 0.0 16.28999089631971 0.0 0.0 0.0 34.31052061344573" Properties=species:S:1:pos:R:3:initial_magmoms:R:1 pbc="T T T"
Si      -1.35988920      -1.33481889       1.37553356       0.00000000
Si      -1.40755374       1.36850661      -1.32269876       0.00000000
Si       1.34982198       1.38637674       1.37316613       0.00000000
Si       1.35205371      -1.44154282      -1.41811980       0.00000000
Si       2.71707426      -2.68958393       0.02543440       0.00000000
Si      -2.70345582      -2.70814196      -0.01272921       0.00000000
Si      -0.00635310      -2.69100068       2.73460835       0.00000000
Si       2.71075374       0.02410920       2.73354472       0.00000000
Si       2.71207323       2.74352922      -0.01343601       0.00000000
Si      -2.72166804       0.02409291       2.73433386       0.00000000
