10
Lattice="16.28999089631971 0.0 0.0 0.0 16.28999089631971 0.0 0.0 0.0 34.31052061344573" Properties=species:S:1:pos:R:3:initial_magmoms:R:1 pbc="T T T"
Si       1.36502055      -1.24804110       1.44355420       0.00000000
Si       1.22965065       1.43237156      -1.48413126       0.00000000
Si      -1.35205371       1.44154282       1.41811980       0.00000000
Si      -0.81966393      -1.96343274      -1.28039527       0.00000000
Si      -0.70389090      -0.90392884      -3.37155405       0.00000000
Si       2.55117690       2.61478120       0.07250846       0.00000000
Si       2.70446580      -2.62457868       0.10125040       0.00000000
Si      -0.00151497      -2.60261976       2.79087420       0.00000000
Si       2.66483223      -0.05777411      -2.81682125       0.00000000
Si      -2.71194291       0.10672393       2.79365336       0.00000000
