10
Lattice="16.28999089631971 0.0 0.0 0.0 16.28999089631971 0.0 0.0 0.0 34.31052061344573" Properties=species:S:1:pos:R:3:initial_magmoms:R:1 pbc="T T T"
Si       1.35474156       1.35684297       1.35804548       0.00000000
Si      -1.35728280      -1.35645853       1.35787392       0.00000000
Si       1.35751086      -1.35754833      -1.35694754       0.00000000
Si      -1.35835794       1.35861858      -1.35674167       0.00000000
Si      -2.71466334      -0.00221544       2.71214524       0.00000000
Si      -0.00288333       2.71428867      -2.71269421       0.00000000
Si       2.71393029      -2.71454368       0.00078914       0.00000000
Si       0.00345348      -2.71664162       2.71207662       0.00000000
Si      -0.00125433      -2.71465376      -2.71434111       0.00000000
Si       0.00645084       2.71489140       2.71461560       0.00000000
