10
Lattice="16.28999089631971 0.0 0.0 0.0 16.28999089631971 0.0 0.0 0.0 34.31052061344573" Properties=species:S:1:pos:R:3:initial_magmoms:R:1 pbc="T T T"
Si       1.12581819       0.75593745       1.93192356       0.00000000
Si      -2.14435044      -0.78835455       0.59525355       0.00000000
Si       0.48990546       1.83272274      -1.57976018       0.00000000
Si       1.46049624      -2.04924942      -0.04113834       0.00000000
Si      -2.46190770      -1.19845530      -1.68523078       0.00000000
Si       1.86527016       0.49767579      -2.99558461       0.00000000
Si       3.11547879      -0.99246825      -1.56493803       0.00000000
Si      -0.85646304      -2.24004442      -3.00121154       0.00000000
Si       1.03045653       3.08602647       2.05430926       0.00000000
Si       1.25990118       3.63947922      -0.24106585       0.00000000
