10
Lattice="16.28999089631971 0.0 0.0 0.0 16.28999089631971 0.0 0.0 0.0 34.31052061344573" Properties=species:S:1:pos:R:3:initial_magmoms:R:1 pbc="T T T"
Si       1.90521324      -0.65438559       1.19380092       0.00000000
Si      -0.84036852       1.89980496       1.08640893       0.00000000
Si       0.88769097       0.69817311      -2.09332034       0.00000000
Si      -1.49718132      -1.75542669      -0.58770524       0.00000000
Si       2.20281525      -2.90813478       0.45777122       0.00000000
Si       0.79232931       3.02826213      -1.97093465       0.00000000
Si      -3.07802808       1.43886312       1.52994128       0.00000000
Si      -0.81344115       3.76597107      -0.35988325       0.00000000
Si       3.56915529       1.07813736       1.18608105       0.00000000
Si       3.24798165       0.26707455      -2.16931819       0.00000000
