10
Lattice="16.28999089631971 0.0 0.0 0.0 16.28999089631971 0.0 0.0 0.0 34.31052061344573" Properties=species:S:1:pos:R:3:initial_magmoms:R:1 pbc="T T T"
Si       1.61632638       1.62231621      -0.10090730       0.00000000
Si      -2.10237111       0.93741457       0.01135679       0.00000000
Si       0.28776285      -1.11903733      -2.01684215       0.00000000
Si       0.51442191      -1.37055493       1.90008338       0.00000000
Si      -3.02130630      -0.88972300      -1.06396984       0.00000000
Si       3.44437389       0.15281975       0.18037051       0.00000000
Si       0.98590338       2.81951718       1.82230139       0.00000000
Si       2.75108778      -1.82810845       1.33680725       0.00000000
Si      -2.59563231       1.21874775       2.27314188       0.00000000
Si       0.56112534      -3.37080403      -1.46914300       0.00000000
