10
Lattice="16.28999089631971 0.0 0.0 0.0 16.28999089631971 0.0 0.0 0.0 34.31052061344573" Properties=species:S:1:pos:R:3:initial_magmoms:R:1 pbc="T T T"
Si       1.25791380      -1.86396696       0.59240578       0.00000000
Si      -1.80186948       0.56156517       1.37780835       0.00000000
Si       1.33403697       1.91814750      -0.07778199       0.00000000
Si       0.17181063      -0.49329378      -2.34159141       0.00000000
Si       1.75117500      -2.14530015      -1.66937931       0.00000000
Si       0.18358830       2.73619872      -1.97151793       0.00000000
Si      -1.50464214       2.85768954       1.68502492       0.00000000
Si      -3.72824995       0.07234389       0.14619721       0.00000000
Si      -0.17612748      -3.62219651       1.17496444       0.00000000
Si       3.30227622      -1.27635408       1.63091720       0.00000000
