10
Lattice="16.28999089631971 0.0 0.0 0.0 16.28999089631971 0.0 0.0 0.0 34.31052061344573" Properties=species:S:1:pos:R:3:initial_magmoms:R:1 pbc="T T T"
Si      -1.36120869      -1.35270531      -1.35590793       0.00000000
Si       1.35459495      -1.35806472       1.35907479       0.00000000
Si      -1.35824391       1.35622395       1.35804548       0.00000000
Si       1.36655181       1.35076680      -1.35688235       0.00000000
Si      -0.04017114       2.48622867      -2.83336094       0.00000000
Si       2.71239903      -2.70962973      -0.00401433       0.00000000
Si      -2.71026015       2.71606428      -0.00446037       0.00000000
Si      -0.04497669      -2.72749986      -2.69987922       0.00000000
Si       2.71073745       2.71756296      -0.00099501       0.00000000
Si      -2.71675661      -2.71192662      -0.00044604       0.00000000
