10
Lattice="16.28999089631971 0.0 0.0 0.0 16.28999089631971 0.0 0.0 0.0 34.31052061344573" Properties=species:S:1:pos:R:3:initial_magmoms:R:1 pbc="T T T"
Si      -1.35671265       1.35783666       1.35732495       0.00000000
Si       1.35788553      -1.35767376       1.35753082       0.00000000
Si      -1.35949824      -1.35850455      -1.35574667       0.00000000
Si       1.35752715       1.35785295      -1.35989824       0.00000000
Si      -0.00169416      -2.71006956      -2.71883579       0.00000000
Si      -2.71409319      -0.00043983      -2.71482146       0.00000000
Si      -2.71497285      -2.71417464       0.00020586       0.00000000
Si      -2.71427238       2.71531494      -0.00030879       0.00000000
Si       0.00083079       2.71485882       2.71502732       0.00000000
Si       2.71559187      -2.71453302      -0.00010293       0.00000000
