10
Lattice="16.28999089631971 0.0 0.0 0.0 16.28999089631971 0.0 0.0 0.0 34.31052061344573" Properties=species:S:1:pos:R:3:initial_magmoms:R:1 pbc="T T T"
Si      -1.35729909      -1.35498591      -1.35948652       0.00000000
Si       1.36511829      -1.35555606       1.35519770       0.00000000
Si       1.35856971       1.36018242      -1.35904048       0.00000000
Si      -1.35902583       1.36443411       1.36048152       0.00000000
Si       2.71340901      -2.71360449      -0.00137242       0.00000000
Si       0.00030951      -2.71182888      -2.71615957       0.00000000
Si      -2.71466334      -2.71497285      -0.00006862       0.00000000
Si      -2.71393192       0.00078192      -2.71626250       0.00000000
Si       2.71528236       0.00234576      -2.71636544       0.00000000
Si       2.70125667      -0.00838935       2.73105035       0.00000000
