10
Lattice="16.28999089631971 0.0 0.0 0.0 16.28999089631971 0.0 0.0 0.0 34.31052061344573" Properties=species:S:1:pos:R:3:initial_magmoms:R:1 pbc="T T T"
Si       1.33613838       1.34716671       1.37585265       0.00000000
Si       1.34829072      -1.35804843      -1.35657012       0.00000000
Si      -1.36511829       1.35555606      -1.35519770       0.00000000
Si      -1.37415924      -1.36161594       1.38587132       0.00000000
Si       2.70589932      -2.70949941       0.00356830       0.00000000
Si       2.70635544       2.71474479       0.00353399       0.00000000
Si       2.70804960       0.00022806      -2.71403232       0.00000000
Si      -0.00645084      -2.71489140      -2.71461560       0.00000000
Si      -0.00654858       2.71573848      -2.71423818       0.00000000
Si      -2.72241738       0.00057015      -2.71468422       0.00000000
