10
Lattice="16.28999089631971 0.0 0.0 0.0 16.28999089631971 0.0 0.0 0.0 34.31052061344573" Properties=species:S:1:pos:R:3:initial_magmoms:R:1 pbc="T T T"
Si      -1.33613838      -1.34716671      -1.37585265       0.00000000
Si       1.37021706       1.36757808      -1.37231866       0.00000000
Si       1.36332639      -1.36300059       1.41726547       0.00000000
Si      -1.34081361       1.29754737       1.50218405       0.00000000
Si       2.13332211       0.44375589       2.75595980       0.00000000
Si       0.64353645       2.34729126       2.61538952       0.00000000
Si      -2.71029762      -2.70878265       0.01001868       0.00000000
Si      -2.69333973       2.72766276       0.02645343       0.00000000
Si      -2.70125667       0.00838935      -2.73105035       0.00000000
Si       2.73869109      -2.69804754       0.00144104       0.00000000
