10
Lattice="16.28999089631971 0.0 0.0 0.0 16.28999089631971 0.0 0.0 0.0 34.31052061344573" Properties=species:S:1:pos:R:3:initial_magmoms:R:1 pbc="T T T"
Si       0.76999572       1.80675648       1.33869433       0.00000000
Si       1.37536470      -1.33504695      -1.41582442       0.00000000
Si      -1.36332639       1.36300059      -1.41726547       0.00000000
Si      -0.48990546      -1.83272274       1.57976018       0.00000000
Si       2.58924663       2.60131752      -0.08086994       0.00000000
Si       0.63591273      -1.07678529       3.51168375       0.00000000
Si      -2.70414000       2.66054796       0.08491859       0.00000000
Si       2.62557333      -2.82519099       0.01482215       0.00000000
Si       0.00643455      -2.69366553      -2.78954982       0.00000000
Si       0.54055107       1.25330373       3.63406944       0.00000000
