10
Lattice="16.28999089631971 0.0 0.0 0.0 16.28999089631971 0.0 0.0 0.0 34.31052061344573" Properties=species:S:1:pos:R:3:initial_magmoms:R:1 pbc="T T T"
Si      -0.42569028       1.40317173       1.76369899       0.00000000
Si       2.23765956       0.46094184      -0.44353235       0.00000000
Si      -0.43746795      -1.82632077       1.39362551       0.00000000
Si      -1.47123135       1.22443785      -1.40120813       0.00000000
Si      -2.04463935      -0.68002605      -2.65285663       0.00000000
Si      -1.87190019      -2.96787510      -0.04155006       0.00000000
Si      -0.74767842      -2.73595437      -2.10762784       0.00000000
Si      -2.82305700       1.35661491       1.76136587       0.00000000
Si      -0.02120958       2.90639664      -2.16777421       0.00000000
Si       3.07802808      -1.43886312      -1.52994128       0.00000000
