10
Lattice="16.28999089631971 0.0 0.0 0.0 16.28999089631971 0.0 0.0 0.0 34.31052061344573" Properties=species:S:1:pos:R:3:initial_magmoms:R:1 pbc="T T T"
Si      -2.13899592       0.89955009      -0.12712055       0.00000000
Si       1.43443224       1.14155433       1.43517557       0.00000000
Si      -0.25133841      -2.06681053       1.09910383       0.00000000
Si       1.12422177       0.23192073      -2.06607777       0.00000000
Si       2.09486142      -2.33758961       1.03206104       0.00000000
Si      -0.17273916       2.28784905      -2.61130656       0.00000000
Si       1.87190019       2.96787510       0.04155006       0.00000000
Si      -3.36581441      -1.12055815       0.13096333       0.00000000
Si       0.21796020      -1.61141820      -3.31419228       0.00000000
Si       3.01379661      -0.51045204       2.10738766       0.00000000
