10
Lattice="16.28999089631971 0.0 0.0 0.0 16.28999089631971 0.0 0.0 0.0 34.31052061344573" Properties=species:S:1:pos:R:3:initial_magmoms:R:1 pbc="T T T"
Si      -1.33403697      -1.91814750       0.07778199       0.00000000
Si      -0.65275659       1.82483838       1.32342614       0.00000000
Si      -1.15044867       0.81805122      -1.89373593       0.00000000
Si       2.34815463      -0.18961560      -0.21886693       0.00000000
Si      -2.83867911       0.93954204       1.76280691       0.00000000
Si      -1.16222634      -2.41144128      -2.26380942       0.00000000
Si       2.80779327       0.73844199      -2.29726219       0.00000000
Si       3.17622420       1.07378793       1.58710264       0.00000000
Si      -3.13590645      -1.35658233       1.45559034       0.00000000
Si      -0.32777109       2.98299222      -2.19632058       0.00000000
