10
Lattice="16.28999089631971 0.0 0.0 0.0 16.28999089631971 0.0 0.0 0.0 34.31052061344573" Properties=species:S:1:pos:R:3:initial_magmoms:R:1 pbc="T T T"
Si       1.36832742       1.34628705       1.37956505       0.00000000
Si      -1.35210258      -1.36386396       1.38038850       0.00000000
Si       1.24269894      -1.36980981      -1.50156989       0.00000000
Si      -1.45036386       1.26107406      -1.45138387       0.00000000
Si      -2.38084866      -0.76400100      -2.81820739       0.00000000
Si       2.69039124      -2.70454725       0.01186458       0.00000000
Si      -2.71322982       2.68400556       0.01237581       0.00000000
Si      -2.69628822      -2.73066012       0.02450116       0.00000000
Si       2.73569373       2.69444745       0.01970797       0.00000000
Si       0.00915498       2.70614367       2.73846828       0.00000000
