10
Lattice="16.28999089631971 0.0 0.0 0.0 16.28999089631971 0.0 0.0 0.0 34.31052061344573" Properties=species:S:1:pos:R:3:initial_magmoms:R:1 pbc="T T T"
Si      -1.36172997      -1.82273697       0.62548114       0.00000000
Si       2.13983811      -0.54006237      -0.87745774       0.00000000
Si      -0.79482168       1.29875283      -1.87853636       0.00000000
Si       0.79405605       0.99681768       2.08114010       0.00000000
Si       2.50646085      -2.41074081       0.43715059       0.00000000
Si       3.40558740       1.35894438      -0.37264677       0.00000000
Si      -1.00429479      -3.46377528      -1.02149339       0.00000000
Si      -0.88982496       2.40386643       2.84705428       0.00000000
Si      -0.58609791      -2.80205919       2.60739516       0.00000000
Si       0.63447921       3.19543011      -2.18595880       0.00000000
