10
Lattice="16.28999089631971 0.0 0.0 0.0 16.28999089631971 0.0 0.0 0.0 34.31052061344573" Properties=species:S:1:pos:R:3:initial_magmoms:R:1 pbc="T T T"
Si       1.52241453      -1.19105964       1.28043503       0.00000000
Si      -0.33249519       2.22501852       0.67890265       0.00000000
Si      -2.04581223      -1.08405063       0.55977646       0.00000000
Si       0.65570508       0.17578539      -2.29266458       0.00000000
Si      -3.08706740      -0.22115304      -1.38686633       0.00000000
Si      -0.37615239       2.19743955      -2.78436892       0.00000000
Si      -0.26814969      -1.72877625      -3.13224349       0.00000000
Si       1.00828584       2.22685929       2.63329962       0.00000000
Si       1.38388437      -0.07794765       3.37097622       0.00000000
Si       3.61866060      -0.69340014       0.33459638       0.00000000
