10
Lattice="16.28999089631971 0.0 0.0 0.0 16.28999089631971 0.0 0.0 0.0 34.31052061344573" Properties=species:S:1:pos:R:3:initial_magmoms:R:1 pbc="T T T"
Si      -2.00073780       1.47219246       0.47252475       0.00000000
Si      -0.09252720      -2.10527073      -1.46427091       0.00000000
Si       1.62280980       0.86638365       1.78916225       0.00000000
Si      -0.88936884      -1.70478108       1.84634420       0.00000000
Si       0.35684874       1.77300360      -2.19378160       0.00000000
Si      -2.55285477      -2.97393498       0.65226605       0.00000000
Si       0.38011086       2.23619346       3.29073215       0.00000000
Si       3.40348599       2.03315490       0.66603761       0.00000000
Si      -2.31617736      -0.49446666       3.31523330       0.00000000
Si      -1.07025300       3.49726752       1.83934828       0.00000000
