10
Lattice="16.28999089631971 0.0 0.0 0.0 16.28999089631971 0.0 0.0 0.0 34.31052061344573" Properties=species:S:1:pos:R:3:initial_magmoms:R:1 pbc="T T T"
Si      -1.35760860       1.35676152       1.35581529       0.00000000
Si       1.35865116       1.35658233      -1.35746220       0.00000000
Si      -1.35687555      -1.35899325      -1.35742789       0.00000000
Si       1.35725022      -1.35993807       1.36305481       0.00000000
Si       0.01575243       2.70097974       2.70384209       0.00000000
Si      -2.70709826      -0.00892692       2.71681147       0.00000000
Si      -2.71194128       2.71391400      -0.00051466       0.00000000
Si       0.00135207       2.71275741      -2.71454698       0.00000000
Si       2.71410948       2.71355562      -0.00092638       0.00000000
Si      -2.71385047      -0.00141723      -2.71451267       0.00000000
