10
Lattice="16.28999089631971 0.0 0.0 0.0 16.28999089631971 0.0 0.0 0.0 34.31052061344573" Properties=species:S:1:pos:R:3:initial_magmoms:R:1 pbc="T T T"
Si       1.68388101      -1.40704875      -0.76591418       0.00000000
Si       0.12970098       2.21048784      -0.71026248       0.00000000
Si      -1.94248476       0.17687682      -1.27851364       0.00000000
Si      -0.79359993      -0.69841746       2.12124912       0.00000000
Si      -2.21649885       2.48126692      -0.64321969       0.00000000
Si       2.23089921      -2.16959994       1.41863789       0.00000000
Si       2.44986939      -0.24573465       2.77812441       0.00000000
Si       0.23825754      -2.72007162       2.61295347       0.00000000
Si       1.37557647       2.14568622      -2.79733831       0.00000000
Si       0.88982496      -2.40386643      -2.84705428       0.00000000
