10
Lattice="16.28999089631971 0.0 0.0 0.0 16.28999089631971 0.0 0.0 0.0 34.31052061344573" Properties=species:S:1:pos:R:3:initial_magmoms:R:1 pbc="T T T"
Si       1.35180936      -1.35770343      -1.36209412       0.00000000
Si       1.35089712       1.35534624       1.36905916       0.00000000
Si      -1.36306575       1.35788097      -1.36103049       0.00000000
Si      -1.38030057      -1.35943017       1.38772409       0.00000000
Si      -0.10269216       2.58985946       2.80248489       0.00000000
Si       2.71068858      -2.71265676      -0.00054897       0.00000000
Si       2.70741429       2.71744274      -0.00301933       0.00000000
Si       2.71003698       0.00175146      -2.71948769       0.00000000
Si      -2.72205900      -2.71027842      -0.00099501       0.00000000
Si      -0.00452862      -2.71355271      -2.71952200       0.00000000
