10
Lattice="16.28999089631971 0.0 0.0 0.0 16.28999089631971 0.0 0.0 0.0 34.31052061344573" Properties=species:S:1:pos:R:3:initial_magmoms:R:1 pbc="T T T"
Si       1.04215275       1.60751349       1.26818617       0.00000000
Si       1.23549876      -0.10938735      -2.03262500       0.00000000
Si      -2.36029068       0.43109856       0.07599785       0.00000000
Si       3.11999112      -1.17294516      -0.93712377       0.00000000
Si       0.32117364       0.81106281       3.35539924       0.00000000
Si      -2.02561263      -2.37408831      -1.89706406       0.00000000
Si      -0.25602993       3.55589523       0.90806275       0.00000000
Si      -0.37063008      -1.31730714      -3.42086375       0.00000000
Si      -2.45565234       2.76118758       0.19838354       0.00000000
Si      -1.34276841      -0.92146014       3.36311911       0.00000000
