10
Lattice="16.28999089631971 0.0 0.0 0.0 16.28999089631971 0.0 0.0 0.0 34.31052061344573" Properties=species:S:1:pos:R:3:initial_magmoms:R:1 pbc="T T T"
Si       1.35782037       1.35645201       1.35718771       0.00000000
Si       1.35770634      -1.35685926      -1.35763375       0.00000000
Si      -1.35788553       1.35767376      -1.35753082       0.00000000
Si      -1.35975888      -1.35827649       1.35746220       0.00000000
Si      -2.70804960      -0.00022806       2.71403232       0.00000000
Si      -0.00215028      -2.70972747       2.71760061       0.00000000
Si       2.71513575       0.00130320      -2.71259128       0.00000000
Si       2.71862181      -0.00141723       2.71029247       0.00000000
Si      -2.71450044      -2.71511946      -0.00058328       0.00000000
Si       2.71544526      -2.71451673       0.00027448       0.00000000
