10
Lattice="16.28999089631971 0.0 0.0 0.0 16.28999089631971 0.0 0.0 0.0 34.31052061344573" Properties=species:S:1:pos:R:3:initial_magmoms:R:1 pbc="T T T"
Si       1.35184194       1.34969166      -1.38103354       0.00000000
Si      -1.36893015      -1.35861858      -1.37372539       0.00000000
Si      -1.37536470       1.33504695       1.41582442       0.00000000
Si       1.25020863      -1.49014404       1.43064658       0.00000000
Si      -1.86527016      -0.49767579       2.99558461       0.00000000
Si       2.70106119       2.68121997      -0.00737677       0.00000000
Si       2.70379791      -2.72465725      -0.00277915       0.00000000
Si      -2.73869109       2.69804754      -0.00144104       0.00000000
Si       2.70495450      -0.00431685      -2.73557934       0.00000000
Si      -0.00895950       2.70756090      -2.73413829       0.00000000
