10
Lattice="16.28999089631971 0.0 0.0 0.0 16.28999089631971 0.0 0.0 0.0 34.31052061344573" Properties=species:S:1:pos:R:3:initial_magmoms:R:1 pbc="T T T"
Si       1.23710088       1.19544654       1.57477284       0.00000000
Si       0.90878571      -1.98042647      -0.87052702       0.00000000
Si      -1.32432961      -1.38505955       1.58407100       0.00000000
Si       1.23221877       1.37696438      -2.22781766       0.00000000
Si       2.03783583      -0.87383048      -2.60142513       0.00000000
Si      -2.58040264       2.29202418      -0.00072052       0.00000000
Si       2.12537829       3.07378128       0.12485605       0.00000000
Si      -2.60806306      -2.79820076       0.11703325       0.00000000
Si      -0.15032560       2.50148100       2.94535539       0.00000000
Si      -1.08164119      -3.31063529      -1.72784447       0.00000000
