10
Lattice="16.28999089631971 0.0 0.0 0.0 16.28999089631971 0.0 0.0 0.0 34.31052061344573" Properties=species:S:1:pos:R:3:initial_magmoms:R:1 pbc="T T T"
Si      -2.25720756       0.58341006      -0.02353703       0.00000000
Si       0.32322618      -0.99191439      -2.10560352       0.00000000
Si       1.26811134       2.00086812       0.33809606       0.00000000
Si       0.10122606      -1.80874386       1.59324423       0.00000000
Si      -2.21420196      -2.05245855       2.04576593       0.00000000
Si      -2.98973628       0.17515008       2.15778985       0.00000000
Si       1.62140886      -2.94029613      -1.74548009       0.00000000
Si      -1.87639623      -1.78662204      -2.81528272       0.00000000
Si      -3.48216669      -1.04891310      -1.20423133       0.00000000
Si      -2.62383030       2.45408850      -1.33814536       0.00000000
