10
Lattice="16.28999089631971 0.0 0.0 0.0 16.28999089631971 0.0 0.0 0.0 34.31052061344573" Properties=species:S:1:pos:R:3:initial_magmoms:R:1 pbc="T T T"
Si       0.84149253      -2.21983830       0.13638440       0.00000000
Si      -1.51988958       0.45036963      -1.81399824       0.00000000
Si       1.87478352       1.24333425       0.87752637       0.00000000
Si      -1.50837255       0.59321664       1.97518915       0.00000000
Si       3.62263536      -0.30633345       0.42905330       0.00000000
Si       1.68184476       3.26350602      -0.23200787       0.00000000
Si      -3.61613565      -0.04728987      -0.86815959       0.00000000
Si      -1.00240515      -3.56374701       0.50031629       0.00000000
Si      -1.25522595       2.74263327      -2.38712150       0.00000000
Si       2.65610079      -2.05153002       1.88086948       0.00000000
