10
Lattice="16.28999089631971 0.0 0.0 0.0 16.28999089631971 0.0 0.0 0.0 34.31052061344573" Properties=species:S:1:pos:R:3:initial_magmoms:R:1 pbc="T T T"
Si       1.30987890       1.32282945      -1.41544156       0.00000000
Si      -1.33944525       1.37653758       1.34230380       0.00000000
Si       1.37943720      -1.35198855       1.33237433       0.00000000
Si      -1.69973118      -1.11031011      -1.46416252       0.00000000
Si       2.42849691      -0.46348308      -2.67673131       0.00000000
Si      -2.70446580       2.62457868      -0.10125040       0.00000000
Si       0.01207089      -2.70014895       2.69223140       0.00000000
Si      -2.70598077       0.02195892       2.68962380       0.00000000
Si       2.72513781       0.01736514       2.69254020       0.00000000
Si       0.01304829       2.73005154       2.69559383       0.00000000
