10
Lattice="16.28999089631971 0.0 0.0 0.0 16.28999089631971 0.0 0.0 0.0 34.31052061344573" Properties=species:S:1:pos:R:3:initial_magmoms:R:1 pbc="T T T"
Si       1.35353610      -1.35618179       1.35907479       0.00000000
Si       1.35988920       1.33481889      -1.37553356       0.00000000
Si      -1.36177884       1.35891180       1.35880031       0.00000000
Si      -1.34356662      -1.37332307      -1.38826277       0.00000000
Si      -0.04766454       2.70332550      -2.69823231       0.00000000
Si       2.71042794      -2.70934370      -0.00277915       0.00000000
Si       2.71230129       0.00092364       2.71646837       0.00000000
Si      -2.69959509       0.05203026      -2.73059745       0.00000000
Si      -0.00260640      -2.71427957       2.71657130       0.00000000
Si       2.70971118       2.72119563      -0.00236743       0.00000000
