10
Lattice="16.28999089631971 0.0 0.0 0.0 16.28999089631971 0.0 0.0 0.0 34.31052061344573" Properties=species:S:1:pos:R:3:initial_magmoms:R:1 pbc="T T T"
Si       0.30709908      -0.87878034      -2.15607432       0.00000000
Si      -2.22000120       0.78459565       0.37408782       0.00000000
Si       1.59581727       1.61551255       0.75816000       0.00000000
Si       0.04743648      -2.56932396       0.13621284       0.00000000
Si       3.31086105      -0.05002659       0.46854473       0.00000000
Si      -3.32801442      -1.40581071       0.45749674       0.00000000
Si      -2.06475750       1.36801369       2.78258478       0.00000000
Si       1.56201552       0.70000510      -3.34592953       0.00000000
Si      -2.10847986      -3.04186428      -1.06187690       0.00000000
Si      -0.10867059       0.73231795       3.91160740       0.00000000
