10
Lattice="16.28999089631971 0.0 0.0 0.0 16.28999089631971 0.0 0.0 0.0 34.31052061344573" Properties=species:S:1:pos:R:3:initial_magmoms:R:1 pbc="T T T"
Si      -2.31756201       0.28313649      -0.04937287       0.00000000
Si       0.63418599       1.52467884       1.69799430       0.00000000
Si       0.30863034      -2.06909064       1.12205758       0.00000000
Si       0.68680269       0.55967553      -2.24898726       0.00000000
Si      -0.92374074       0.82790667       3.31374624       0.00000000
Si       2.56780899      -2.47529808       0.64345986       0.00000000
Si       0.09495441      -1.34097651       3.37073605       0.00000000
Si       2.78949960      -0.69400287      -2.31620161       0.00000000
Si       0.33143634      -2.48670108      -2.71272852       0.00000000
Si      -2.90084175       1.05746535       2.05489254       0.00000000
