10
Lattice="16.28999089631971 0.0 0.0 0.0 16.28999089631971 0.0 0.0 0.0 34.31052061344573" Properties=species:S:1:pos:R:3:initial_magmoms:R:1 pbc="T T T"
Si       1.90032624      -0.74683134       1.18079723       0.00000000
Si       0.33769170       1.59190767      -1.71415457       0.00000000
Si      -1.11861801       1.78631253       1.26128975       0.00000000
Si      -0.87972516      -2.31337548      -0.47211303       0.00000000
Si       0.43285788      -2.16759627       2.62920435       0.00000000
Si      -1.97245836       1.90449063      -2.35809478       0.00000000
Si      -2.42849691       0.46348308       2.67673131       0.00000000
Si      -2.53980648      -0.39423429      -2.63254479       0.00000000
Si       1.04091471       0.27531729      -3.53189266       0.00000000
Si      -3.12864111      -1.81985364      -0.74172525       0.00000000
