10
Lattice="16.28999089631971 0.0 0.0 0.0 16.28999089631971 0.0 0.0 0.0 34.31052061344573" Properties=species:S:1:pos:R:3:initial_magmoms:R:1 pbc="T T T"
Si       1.35866745      -1.35769005       1.35279596       0.00000000
Si      -1.35726881      -1.35441576      -1.35938359       0.00000000
Si       1.35736425       1.35998694      -1.35941790       0.00000000
Si      -1.35890270       1.36052451       1.35838858       0.00000000
Si       0.01490861      -2.70987082       2.71646837       0.00000000
Si      -2.71439360      -2.71301479      -0.00048035       0.00000000
Si       2.71604799      -2.71193314      -0.00147535       0.00000000
Si      -0.00015150      -2.71221495      -2.71588509       0.00000000
Si      -2.71349765       0.00257382      -2.71547336       0.00000000
Si       2.71466334       2.71497285       0.00006862       0.00000000
