10
Lattice="16.28999089631971 0.0 0.0 0.0 16.28999089631971 0.0 0.0 0.0 34.31052061344573" Properties=species:S:1:pos:R:3:initial_magmoms:R:1 pbc="T T T"
Si      -1.35311256       1.35400851       1.35454580       0.00000000
Si       1.35824391       1.35553977      -1.35584960       0.00000000
Si      -1.35628911      -1.35909099      -1.35547218       0.00000000
Si       1.35536058      -1.35824391       1.36072170       0.00000000
Si      -0.00389331       2.68553682       2.72820257       0.00000000
Si      -2.71391400       2.71187775       0.00144104       0.00000000
Si       0.00060273       2.71342530      -2.71279714       0.00000000
Si      -2.71402803      -0.00143352      -2.71338042       0.00000000
Si       2.71505430       2.71311579       0.00174984       0.00000000
Si       2.71692765      -0.00164529      -2.71245403       0.00000000
