10
Lattice="16.28999089631971 0.0 0.0 0.0 16.28999089631971 0.0 0.0 0.0 34.31052061344573" Properties=species:S:1:pos:R:3:initial_magmoms:R:1 pbc="T T T"
Si       2.12775093      -0.27956898      -0.96114115       0.00000000
Si      -0.55587996      -2.28843549      -0.12540502       0.00000000
Si       0.23167638       0.39597732       2.37151020       0.00000000
Si      -1.41278283       1.61442045      -1.14017355       0.00000000
Si      -2.84444577      -2.07987462      -0.65196888       0.00000000
Si      -1.03622319       2.53037457       2.33068066       0.00000000
Si       3.11348345       1.78349436      -0.27873883       0.00000000
Si      -0.66624471      -1.66206870       3.15454534       0.00000000
Si       1.60184457      -0.41963040      -3.26629477       0.00000000
Si      -2.85083145       2.36206629       0.58619557       0.00000000
