10
Lattice="16.28999089631971 0.0 0.0 0.0 16.28999089631971 0.0 0.0 0.0 34.31052061344573" Properties=species:S:1:pos:R:3:initial_magmoms:R:1 pbc="T T T"
Si       0.96653457       1.74519657      -1.45181618       0.00000000
Si       1.26789957      -2.13439725       0.04082954       0.00000000
Si       0.05176962       0.94214844       2.31987284       0.00000000
Si      -1.81460826      -0.16830828      -1.74448508       0.00000000
Si      -0.78131727       3.29486427      -1.00334312       0.00000000
Si       1.03622319      -2.53037457      -2.33068066       0.00000000
Si      -0.37655964      -0.91595412      -3.47085420       0.00000000
Si       3.24205209       1.74057021      -0.66836932       0.00000000
Si      -2.65610079       2.05153002      -1.88086948       0.00000000
Si       0.63983862       1.15807239      -3.71123385       0.00000000
