10
Lattice="16.28999089631971 0.0 0.0 0.0 16.28999089631971 0.0 0.0 0.0 34.31052061344573" Properties=species:S:1:pos:R:3:initial_magmoms:R:1 pbc="T T T"
Si       1.09984608       1.73271843      -1.08489927       0.00000000
Si       0.96780912      -0.85959072       1.96506755       0.00000000
Si      -2.21763915      -0.14936301      -0.81604188       0.00000000
Si       0.66416792       1.23815403      -3.46629090       0.00000000
Si      -3.11556024      -2.20740903      -0.03300674       0.00000000
Si      -0.83183256      -1.76774193       3.28122469       0.00000000
Si       2.02033534       0.88700679       3.14248660       0.00000000
Si      -0.24348663       3.72560445      -1.52524074       0.00000000
Si      -2.44931553      -0.54534033      -3.18755208       0.00000000
Si      -3.48553872       1.98503424      -0.85687142       0.00000000
