10
Lattice="16.28999089631971 0.0 0.0 0.0 16.28999089631971 0.0 0.0 0.0 34.31052061344573" Properties=species:S:1:pos:R:3:initial_magmoms:R:1 pbc="T T T"
Si      -1.32732549      -1.26340353      -1.46502574       0.00000000
Si      -0.73578672       1.37451762       1.77237955       0.00000000
Si       1.44466236       1.36599795      -1.36590259       0.00000000
Si      -0.19704384      -2.26686753       0.95846493       0.00000000
Si      -2.64148051      -2.65473243      -0.05705843       0.00000000
Si       0.79778646       1.27575135       3.51634998       0.00000000
Si       0.07517835      -2.64033207      -2.85806796       0.00000000
Si      -2.63460613       0.08058663      -2.87594376       0.00000000
Si       0.09213624       2.79611334      -2.84163322       0.00000000
Si       2.78547597       0.06845058      -2.86808664       0.00000000
