10
Lattice="16.28999089631971 0.0 0.0 0.0 16.28999089631971 0.0 0.0 0.0 34.31052061344573" Properties=species:S:1:pos:R:3:initial_magmoms:R:1 pbc="T T T"
Si      -0.27960156      -0.58314942      -2.23886565       0.00000000
Si      -2.25917865       0.40620744       0.47859772       0.00000000
Si       1.32268284       1.77947073      -0.82290399       0.00000000
Si       0.89391375      -0.50425695       2.13974250       0.00000000
Si       0.22169061       1.78129521      -2.95966147       0.00000000
Si      -0.18204075       1.34423451       3.20326631       0.00000000
Si      -2.56780899       2.47529808      -0.64345986       0.00000000
Si       1.19192301      -2.46555666      -2.50388026       0.00000000
Si      -2.47285458       1.13432157       2.72727619       0.00000000
Si      -3.52728999      -1.59466068       0.14050166       0.00000000
