10
Lattice="16.28999089631971 0.0 0.0 0.0 16.28999089631971 0.0 0.0 0.0 34.31052061344573" Properties=species:S:1:pos:R:3:initial_magmoms:R:1 pbc="T T T"
Si      -1.35633798      -1.35584928      -1.35742789       0.00000000
Si      -1.35180936       1.35770343       1.36209412       0.00000000
Si       1.35822762       1.35945488      -1.35739358       0.00000000
Si       1.35887922      -1.35495333       1.36154515       0.00000000
Si       0.00014661      -2.71326240      -2.71440973       0.00000000
Si      -2.71344159       0.00167787      -2.71506163       0.00000000
Si      -2.71350675      -2.71500543       0.00078914       0.00000000
Si      -2.71487511       2.71558440       0.00106363       0.00000000
Si       2.71645524       0.00188964      -2.71475284       0.00000000
Si       0.00086337       2.71667583      -2.71485577       0.00000000
