10
Lattice="16.28999089631971 0.0 0.0 0.0 16.28999089631971 0.0 0.0 0.0 34.31052061344573" Properties=species:S:1:pos:R:3:initial_magmoms:R:1 pbc="T T T"
Si      -1.90032624       0.74683134      -1.18079723       0.00000000
Si       1.28373345       1.41314121       1.46703775       0.00000000
Si       1.52642187      -0.51243453      -1.84487772       0.00000000
Si      -1.46746836      -1.42076493       1.44840712       0.00000000
Si      -2.78005140      -1.56654414      -1.65291025       0.00000000
Si       3.51684877       0.81777429      -0.98756027       0.00000000
Si       2.47695966      -0.13465314       2.81848531       0.00000000
Si       2.60806306       2.79820076      -0.11703325       0.00000000
Si      -0.23739417       2.58497865       2.83102238       0.00000000
Si      -3.01894425       2.53314387       0.08049253       0.00000000
