10
Lattice="16.28999089631971 0.0 0.0 0.0 16.28999089631971 0.0 0.0 0.0 34.31052061344573" Properties=species:S:1:pos:R:3:initial_magmoms:R:1 pbc="T T T"
Si       0.70322301      -1.31659038      -1.81773809       0.00000000
Si      -0.33769170      -1.59190767       1.71415457       0.00000000
Si      -2.31015006       0.31258296      -0.64394021       0.00000000
Si       1.25009460       2.03951519      -0.40832973       0.00000000
Si      -1.45630971       0.19440486       2.97544432       0.00000000
Si      -2.80582218       1.43837998       1.47281423       0.00000000
Si      -2.87749818      -1.98614196      -0.91839022       0.00000000
Si      -0.14981913       0.03417642      -3.61447812       0.00000000
Si      -0.95548995      -2.96776107      -1.98815854       0.00000000
Si       2.86580196      -2.08805220      -1.21644588       0.00000000
