10
Lattice="16.28999089631971 0.0 0.0 0.0 16.28999089631971 0.0 0.0 0.0 34.31052061344573" Properties=species:S:1:pos:R:3:initial_magmoms:R:1 pbc="T T T"
Si      -0.11589358      -0.72584982       2.23464546       0.00000000
Si       1.39857795       1.89144819       0.11459720       0.00000000
Si      -2.05722242       0.97572213      -0.67746161       0.00000000
Si       0.21073884      -1.53349173      -1.81543928       0.00000000
Si      -1.10798783       1.79033616      -2.73448140       0.00000000
Si       0.58309566       2.74771575       2.14269321       0.00000000
Si       0.91579448       2.87044461      -1.99292770       0.00000000
Si      -0.17372308      -0.14765256      -3.71058195       0.00000000
Si       2.34973476      -2.43304182      -1.68831873       0.00000000
Si      -0.15455138      -3.04092598       2.26899031       0.00000000
