10
Lattice="16.28999089631971 0.0 0.0 0.0 16.28999089631971 0.0 0.0 0.0 34.31052061344573" Properties=species:S:1:pos:R:3:initial_magmoms:R:1 pbc="T T T"
Si      -1.35622883       1.35698958      -1.35608977       0.00000000
Si       1.35726881       1.35441576       1.35938359       0.00000000
Si       1.35711732      -1.35779919      -1.35650150       0.00000000
Si      -1.35712478      -1.35859903       1.35890324       0.00000000
Si      -0.00064557       2.71513575      -2.71173351       0.00000000
Si       2.71593626      -0.00327429       2.71217955       0.00000000
Si      -2.71313696      -0.00172674      -2.71516457       0.00000000
Si       2.71403033      -0.00061902      -2.71458129       0.00000000
Si       2.71463306       2.71440270      -0.00003431       0.00000000
Si      -2.71491257       2.71417464       0.00051466       0.00000000
