10
Lattice="16.28999089631971 0.0 0.0 0.0 16.28999089631971 0.0 0.0 0.0 34.31052061344573" Properties=species:S:1:pos:R:3:initial_magmoms:R:1 pbc="T T T"
Si      -1.35716225       1.35395964      -1.36336361       0.00000000
Si      -1.35979961      -1.36068741       1.36271171       0.00000000
Si       1.35902583      -1.36443411      -1.36048152       0.00000000
Si       1.36694277       1.35483930       1.39702225       0.00000000
Si      -2.70913193       2.70795186      -0.00747970       0.00000000
Si       2.71619460       2.70966231       0.00085776       0.00000000
Si       0.00206883       2.71060713      -2.71962494       0.00000000
Si      -2.71285549      -0.00420282      -2.71972787       0.00000000
Si      -2.71454021      -2.71888245      -0.00216156       0.00000000
Si       2.71759554      -0.00425169      -2.71952200       0.00000000
