10
Lattice="16.28999089631971 0.0 0.0 0.0 16.28999089631971 0.0 0.0 0.0 34.31052061344573" Properties=species:S:1:pos:R:3:initial_magmoms:R:1 pbc="T T T"
Si       0.70302753       1.84049307       1.34703179       0.00000000
Si      -1.32873620       1.26296370      -1.54445464       0.00000000
Si      -1.90424398      -0.99497691       1.16182350       0.00000000
Si       1.38636045      -1.44287046      -1.50204681       0.00000000
Si       2.56608225       2.64554487       0.02120391       0.00000000
Si      -2.71100528       2.57883732      -0.16616594       0.00000000
Si      -3.64429196       0.74728746       1.09392294       0.00000000
Si      -0.94071492       3.61678725       1.05144649       0.00000000
Si       0.02075346       2.62865214      -2.90545082       0.00000000
Si      -2.68971425      -0.08975790      -2.90654876       0.00000000
