10
Lattice="16.28999089631971 0.0 0.0 0.0 16.28999089631971 0.0 0.0 0.0 34.31052061344573" Properties=species:S:1:pos:R:3:initial_magmoms:R:1 pbc="T T T"
Si       0.78262047      -1.33455825       1.75560170       0.00000000
Si      -2.19700691       0.76738932       0.45705070       0.00000000
Si       1.30864086       1.82364921      -1.01325886       0.00000000
Si      -0.20797280      -1.93168449      -1.56775149       0.00000000
Si      -1.82276045       2.52767043       1.92543887       0.00000000
Si      -0.37242361      -0.57741534       3.62741320       0.00000000
Si      -3.29799914       0.76921380      -1.67970679       0.00000000
Si       3.11761278      -1.43532819       1.58524987       0.00000000
Si      -3.51968975      -1.01208141       1.27995469       0.00000000
Si      -0.17902058       1.83208743       3.42264790       0.00000000
