10
Lattice="16.28999089631971 0.0 0.0 0.0 16.28999089631971 0.0 0.0 0.0 34.31052061344573" Properties=species:S:1:pos:R:3:initial_magmoms:R:1 pbc="T T T"
Si       0.47566637      -1.28928834      -1.82679607       0.00000000
Si      -2.10897738       0.07794765       0.90933224       0.00000000
Si       0.52880435       2.22705477      -0.51565310       0.00000000
Si       1.04125517      -0.86289759       1.94664279       0.00000000
Si       3.08706740       0.22115304       1.38686633       0.00000000
Si       0.41410646       2.92444596       1.68986271       0.00000000
Si      -1.39946643       1.66426785       2.64283795       0.00000000
Si      -2.51992521      -2.27139615       1.23617444       0.00000000
Si       2.81891771      -1.50762321      -1.74537716       0.00000000
Si      -0.45742646      -0.25168050      -3.69816153       0.00000000
