10
Lattice="16.28999089631971 0.0 0.0 0.0 16.28999089631971 0.0 0.0 0.0 34.31052061344573" Properties=species:S:1:pos:R:3:initial_magmoms:R:1 pbc="T T T"
Si       1.35744523      -1.35744570      -1.35732495       0.00000000
Si      -1.35750060       1.35767376      -1.35729064       0.00000000
Si       1.35935441       1.35788553       1.35667305       0.00000000
Si      -1.35740286      -1.35956340       1.35729064       0.00000000
Si       2.71368709       0.00073305       2.71300300       0.00000000
Si       0.00275692       2.71151864       2.71718889       0.00000000
Si       2.71446901      -0.00026064      -2.71489008       0.00000000
Si       2.71442014      -2.71502172      -0.00024017       0.00000000
Si       0.00321939      -2.71767699       2.71190506       0.00000000
Si       2.71521835       2.71456450      -0.00027448       0.00000000
