10
Lattice="16.28999089631971 0.0 0.0 0.0 16.28999089631971 0.0 0.0 0.0 34.31052061344573" Properties=species:S:1:pos:R:3:initial_magmoms:R:1 pbc="T T T"
Si       1.03053798       1.69345953      -1.25535403       0.00000000
Si      -1.77029036      -1.03794993      -1.21761244       0.00000000
Si      -0.74045218       1.82761047       1.35777099       0.00000000
Si       1.64374245      -1.77629418       0.29558530       0.00000000
Si       0.86631849      -1.68000399       2.85295569       0.00000000
Si       2.33482941       0.35608311      -2.60887051       0.00000000
Si      -0.38802128      -2.35382355      -2.59590113       0.00000000
Si       2.65522113       2.29576014       0.41755927       0.00000000
Si       1.39999518       2.22428125       2.61652176       0.00000000
Si       3.50679717      -0.97124238      -1.03024258       0.00000000
