10
Lattice="16.2900001489832 0.0 0.0 0.0 16.2900001489832 0.0 0.0 0.0 29.18935068521919" Properties=species:S:1:pos:R:3:initial_magmoms:R:1 pbc="T T T"
Si       0.18422361      -1.18708489      -2.09170887       0.00000000
Si      -0.29985166      -1.14365575       2.11561495       0.00000000
Si      -2.38112561       0.37918233      -0.52181802       0.00000000
Si       1.79975180       1.72339079      -0.01564549       0.00000000
Si      -2.77768938      -1.79045021      -1.32937060       0.00000000
Si      -0.85253390       0.75380347       3.44807962       0.00000000
Si       0.78612283       0.72283618      -3.49250581       0.00000000
H        3.22450779      -0.89863786       1.59169529       0.00000000
Si       1.40957371       2.66620061      -2.15925303       0.00000000
H       -2.01388385       2.90256852       1.16798268       0.00000000
