10
Lattice="16.2900001489832 0.0 0.0 0.0 16.2900001489832 0.0 0.0 0.0 29.18935068521919" Properties=species:S:1:pos:R:3:initial_magmoms:R:1 pbc="T T T"
Si      -0.89230105       1.59381361       1.43626200       0.00000000
Si       0.62900578       0.93100609      -2.05887085       0.00000000
Si       2.01183131      -1.06968286       0.80311579       0.00000000
Si      -1.97184587      -1.37577196      -0.35050572       0.00000000
H        3.09941688      -1.02884383      -0.28100588       0.00000000
Si       0.16729830      -0.92953999      -3.36596997       0.00000000
Si       1.09320562      -3.27103203       0.84599495       0.00000000
Si      -2.15138285       0.14501358       2.84604342       0.00000000
Si      -2.15395179      -1.21935538      -2.72949618       0.00000000
Si      -0.99932635      -3.57024675      -0.28427509       0.00000000
