10
Lattice="16.2900001489832 0.0 0.0 0.0 16.2900001489832 0.0 0.0 0.0 29.18935068521919" Properties=species:S:1:pos:R:3:initial_magmoms:R:1 pbc="T T T"
Si       0.81710641       1.29163411      -0.18590697       0.00000000
Si      -0.07374483       1.48294387       2.01175924       0.00000000
Si       2.23230180      -0.12386916      -1.48652606       0.00000000
Si      -0.52536879       2.69565293      -1.58290930       0.00000000
Si      -2.47867013      -1.90834094      -0.53971109       0.00000000
Si      -0.53142867      -2.82779742      -1.55418698       0.00000000
Si       0.79361623      -1.38354229      -2.88787760       0.00000000
Si       0.58754773      -0.40935141       3.22332162       0.00000000
Si      -2.70462872      -1.23336478       1.67789145       0.00000000
Si      -2.34887141       0.98256394       2.29115970       0.00000000
