10
Lattice="16.2900001489832 0.0 0.0 0.0 16.2900001489832 0.0 0.0 0.0 29.18935068521919" Properties=species:S:1:pos:R:3:initial_magmoms:R:1 pbc="T T T"
H       -0.76735675       0.05856255      -1.29988935       0.00000000
Si       2.19827036      -0.24915555      -0.70868825       0.00000000
Si      -0.76377295      -2.05801346       0.81645533       0.00000000
Si      -0.65493946       2.08433810       0.88058433       0.00000000
Si      -3.05777964      -1.59749515       1.17758597       0.00000000
H        1.53108082       1.13640670       3.21176263       0.00000000
Si      -2.02810502       3.16415334      -0.83221758       0.00000000
Si      -2.34297443       1.89421751       2.48150346       0.00000000
Si       0.28546596      -2.69765660       2.83160053       0.00000000
Si      -0.19214055      -3.86594284      -0.68451946       0.00000000
