10
Lattice="16.2900001489832 0.0 0.0 0.0 16.2900001489832 0.0 0.0 0.0 29.18935068521919" Properties=species:S:1:pos:R:3:initial_magmoms:R:1 pbc="T T T"
Si       1.39553173      -1.36563958      -1.28535306       0.00000000
Si       1.37674936       1.32291091       1.36127456       0.00000000
Si      -1.26802990       1.29054268      -1.49469908       0.00000000
Si      -1.34200279      -1.34843734       1.38194062       0.00000000
Si      -2.59371011       2.60508053       0.00008757       0.00000000
Si       2.72953614      -0.20396709       2.55059465       0.00000000
Si       2.76690540       2.61060284      -0.11089034       0.00000000
Si      -2.61164540      -2.77860162      -0.05376678       0.00000000
Si       0.16855263      -2.79669981      -2.66212132       0.00000000
Si       0.00159642       2.70441695       2.76898937       0.00000000
