10
Lattice="16.2900001489832 0.0 0.0 0.0 16.2900001489832 0.0 0.0 0.0 29.18935068521919" Properties=species:S:1:pos:R:3:initial_magmoms:R:1 pbc="T T T"
H       -0.58751515       0.62758855       1.25029665       0.00000000
Si      -1.71118307      -0.95438224      -1.26313996       0.00000000
Si       1.05547798       1.66531043      -1.36436863       0.00000000
Si       1.44200710      -1.84811681       0.53247214       0.00000000
Si      -0.30832083      -2.32254677      -2.57870400       0.00000000
Si       3.52049709      -0.80392780       0.58495459       0.00000000
Si       2.52130106       0.47040633      -2.78457649       0.00000000
Si       0.97946884      -3.56759148      -1.06584914       0.00000000
Si       2.30296619       3.14230845      -0.09197564       0.00000000
Si       3.42151905       1.50348556       1.17224432       0.00000000
