10
Lattice="16.2900001489832 0.0 0.0 0.0 16.2900001489832 0.0 0.0 0.0 29.18935068521919" Properties=species:S:1:pos:R:3:initial_magmoms:R:1 pbc="T T T"
Si       1.27172773      -0.51258114      -0.66151825       0.00000000
H       -1.23005791       1.70981471      -0.98893520       0.00000000
Si       0.72545887       0.31061772       2.70439334       0.00000000
Si       2.37604313      -0.71514730       1.41436999       0.00000000
Si      -1.52840926      -0.36786078       2.40123274       0.00000000
Si       0.38863053      -2.10986453      -2.17784664       0.00000000
Si      -2.67120164       1.30333033      -0.85734961       0.00000000
Si       2.23735007       1.23701374      -1.83568908       0.00000000
Si      -1.78593788      -2.30410649      -1.25140584       0.00000000
Si       0.77199940       2.47234961       1.83930855       0.00000000
