10
Lattice="16.2900001489832 0.0 0.0 0.0 16.2900001489832 0.0 0.0 0.0 29.18935068521919" Properties=species:S:1:pos:R:3:initial_magmoms:R:1 pbc="T T T"
Si       0.74547928      -1.75100886      -1.34116660       0.00000000
Si      -1.19105965       1.32664132      -1.49840963       0.00000000
Si      -1.27311238      -1.31411431       1.44711402       0.00000000
Si       1.62895114       1.37758015       0.98107976       0.00000000
Si       0.24239520       2.66209553       2.46877924       0.00000000
Si       0.32738013       1.53766198      -3.30041420       0.00000000
Si      -2.85793392      -2.32465144       0.04986154       0.00000000
Si       0.87734683      -0.83678473      -3.50269640       0.00000000
Si      -1.25397163      -3.12152241      -1.60687726       0.00000000
Si      -2.55493991       0.14309136       2.72144226       0.00000000
