10
Lattice="16.2900001489832 0.0 0.0 0.0 16.2900001489832 0.0 0.0 0.0 29.18935068521919" Properties=species:S:1:pos:R:3:initial_magmoms:R:1 pbc="T T T"
Si       1.16864461      -1.33924001       1.52756921       0.00000000
Si      -1.24841674      -1.48179380      -1.35275127       0.00000000
Si      -1.47934378       1.35567988       1.29804459       0.00000000
Si       1.82856881       0.95041725      -1.26734994       0.00000000
Si       2.54728361      -2.64009426       0.13399371       0.00000000
Si      -2.52139880      -0.04800826      -2.71274150       0.00000000
Si       2.46498653       0.13681157       2.86735749       0.00000000
Si       3.52978239      -0.92093235      -1.15048862       0.00000000
Si      -0.16891101       2.74404401       2.69125813       0.00000000
Si      -2.84555352      -2.65646571      -0.02916016       0.00000000
