10
Lattice="16.2900001489832 0.0 0.0 0.0 16.2900001489832 0.0 0.0 0.0 29.18935068521919" Properties=species:S:1:pos:R:3:initial_magmoms:R:1 pbc="T T T"
Si       1.46147365      -0.92294254      -1.55736862       0.00000000
Si       0.90051121       1.70606801       1.37636545       0.00000000
Si      -1.73626967       1.09810891      -1.20768020       0.00000000
Si      -0.72979201      -1.64613872       1.57561196       0.00000000
Si      -1.25866315       2.26639514       2.30843980       0.00000000
Si      -1.75790279      -0.01760949       2.99710415       0.00000000
Si       0.38807667      -2.93910699      -2.00743921       0.00000000
H       -0.12206097      -3.54024057      -0.69348059       0.00000000
Si      -0.53932932       1.64224378      -3.22790435       0.00000000
Si      -2.30790206       2.90603829       0.29329460       0.00000000
