10
Lattice="16.2900001489832 0.0 0.0 0.0 16.2900001489832 0.0 0.0 0.0 29.18935068521919" Properties=species:S:1:pos:R:3:initial_magmoms:R:1 pbc="T T T"
Si       0.96159871      -1.86261491       1.12122426       0.00000000
Si      -1.73490131       0.83934226       1.40214549       0.00000000
Si      -1.00395271      -0.23045463      -2.15858167       0.00000000
Si       1.75440044       1.66923632       0.08898957       0.00000000
Si       2.24847614      -0.60929488       2.66052175       0.00000000
Si      -0.50792220       2.27040248       2.77891375       0.00000000
Si      -2.61478937       1.60194232      -2.10782139       0.00000000
Si       0.79094467       3.48949722       1.23490218       0.00000000
Si      -2.25111512      -2.25631163      -2.12349607       0.00000000
Si       3.57262509       0.76204621       1.31299537       0.00000000
