10
Lattice="16.2900001489832 0.0 0.0 0.0 16.2900001489832 0.0 0.0 0.0 29.18935068521919" Properties=species:S:1:pos:R:3:initial_magmoms:R:1 pbc="T T T"
Si      -2.16544601       0.75569311       0.50480063       0.00000000
Si       1.58882887       1.79005925       0.10318435       0.00000000
Si       0.14274927      -0.93299347      -2.21506307       0.00000000
Si       0.75434104      -1.61143939       1.69023854       0.00000000
H        2.04620321       1.77041351       1.51130782       0.00000000
Si       2.05097618      -2.24494121      -1.68253255       0.00000000
H       -0.36082350       2.44123571       2.55672442       0.00000000
Si       1.42705288      -3.48441474       0.35094356       0.00000000
H       -2.76827376      -0.42161778      -2.61810962       0.00000000
Si       0.41774076       0.75502522      -3.87077061       0.00000000
