10
Lattice="16.2900001489832 0.0 0.0 0.0 16.2900001489832 0.0 0.0 0.0 29.18935068521919" Properties=species:S:1:pos:R:3:initial_magmoms:R:1 pbc="T T T"
Si      -1.36068742       1.36117612      -1.33914903       0.00000000
Si       1.30238551       1.44684523       1.34457825       0.00000000
Si      -1.39015603      -1.28769193       1.47216490       0.00000000
Si       1.35632170      -1.26977293      -1.53060198       0.00000000
Si       2.62894538       0.02119329       2.63366754       0.00000000
Si       2.68420106      -2.62272260      -0.18867996       0.00000000
Si       0.06768495       2.74261701      -2.58777897       0.00000000
Si      -2.76690540      -2.61060284       0.11089034       0.00000000
Si      -2.65957058      -0.00781920      -2.80254545       0.00000000
Si      -2.69980688       2.77125483       0.01199682       0.00000000
