10
Lattice="16.2900001489832 0.0 0.0 0.0 16.2900001489832 0.0 0.0 0.0 29.18935068521919" Properties=species:S:1:pos:R:3:initial_magmoms:R:1 pbc="T T T"
Si      -1.57426561      -1.80203240      -0.32496504       0.00000000
Si       0.31661244       0.67243492       2.31220523       0.00000000
Si       1.86061124      -1.59195655      -0.11629037       0.00000000
Si       0.52623216       2.01982970      -1.30263315       0.00000000
H       -2.56217267       1.44831133       0.05455490       0.00000000
H       -2.48303585       2.28784907       1.22928031       0.00000000
Si      -1.53210709      -2.67444335       1.97004766       0.00000000
Si       3.63296325      -0.22911885       0.55322576       0.00000000
Si       2.65983122       0.87708619       2.40780035       0.00000000
Si      -0.64900990      -1.07715997       3.48637605       0.00000000
