10
Lattice="16.2900001489832 0.0 0.0 0.0 16.2900001489832 0.0 0.0 0.0 29.18935068521919" Properties=species:S:1:pos:R:3:initial_magmoms:R:1 pbc="T T T"
Si       1.35044101      -1.42394149       1.31973811       0.00000000
Si       1.38878767       1.25960797      -1.46842866       0.00000000
Si      -1.36951660      -1.35211888      -1.42820574       0.00000000
Si      -1.46727289       1.33133284       1.37674491       0.00000000
Si       2.91727839      -0.03161889       2.34428432       0.00000000
Si      -2.75506257       2.57637755      -0.13610994       0.00000000
Si       0.03113019       2.52286490      -2.87611429       0.00000000
Si      -0.06463872      -2.74001875       2.74070489       0.00000000
Si       2.71508690      -2.77680809      -0.10986872       0.00000000
Si      -2.90773245      -0.07306065       2.59826086       0.00000000
