10
Lattice="16.2900001489832 0.0 0.0 0.0 16.2900001489832 0.0 0.0 0.0 29.18935068521919" Properties=species:S:1:pos:R:3:initial_magmoms:R:1 pbc="T T T"
Si      -0.58316572      -1.73437677      -1.50733807       0.00000000
Si       0.82572382       1.81868403      -1.28126655       0.00000000
Si       1.63719388      -0.59736571       1.63559608       0.00000000
Si      -2.03639663       0.99100542       0.82036670       0.00000000
Si      -2.25531794      -0.37685123      -2.59154731       0.00000000
Si       1.21448467       1.11508635       3.18093868       0.00000000
Si       2.47888190       0.69596093      -2.58010509       0.00000000
Si      -3.28342872       1.25167800      -1.17005512       0.00000000
Si      -0.79278544      -3.08177155       2.10750031       0.00000000
Si       1.49633425       3.51608576       0.28532590       0.00000000
