10
Lattice="16.2900001489832 0.0 0.0 0.0 16.2900001489832 0.0 0.0 0.0 29.18935068521919" Properties=species:S:1:pos:R:3:initial_magmoms:R:1 pbc="T T T"
Si       1.19105965      -1.32664132       1.49840963       0.00000000
Si      -1.28321218       1.67397671       1.06663725       0.00000000
Si       1.51843978       0.21102066      -1.80200456       0.00000000
Si      -0.04364091       0.90438823      -3.36506510       0.00000000
Si       2.06840648      -2.16342605      -2.00428676       0.00000000
Si      -2.51893901       0.13695003       2.57997665       0.00000000
Si       1.93653893      -3.07765018       0.15724303       0.00000000
Si       2.82001080       0.05093883       2.47948939       0.00000000
Si       0.02451645       2.75533950       2.73826174       0.00000000
Si      -0.08205273      -2.64075563       2.94552365       0.00000000
