10
Lattice="16.2900001489832 0.0 0.0 0.0 16.2900001489832 0.0 0.0 0.0 29.18935068521919" Properties=species:S:1:pos:R:3:initial_magmoms:R:1 pbc="T T T"
Si       0.49101318      -2.11620134       0.81852777       0.00000000
Si      -0.48547133      -0.19240119      -2.31500740       0.00000000
Si      -1.62324802       0.83113210       1.57733413       0.00000000
Si       2.27815815       0.81782317       0.23596671       0.00000000
Si       0.62279603      -1.32144481       3.05049147       0.00000000
Si       2.02698264       0.57922354       2.84371411       0.00000000
Si       2.62770897       0.85134799      -2.23091288       0.00000000
Si       2.55839502      -2.67035456      -0.09801784       0.00000000
Si       1.56061622      -0.94653046      -3.25542990       0.00000000
Si      -1.60834267       3.16962678       1.18888225       0.00000000
