10
Lattice="16.2900001489832 0.0 0.0 0.0 16.2900001489832 0.0 0.0 0.0 29.18935068521919" Properties=species:S:1:pos:R:3:initial_magmoms:R:1 pbc="T T T"
Si      -1.35912358      -1.39981600      -1.26296483       0.00000000
Si       0.10508679       0.31737807       2.30228085       0.00000000
Si       1.44045955       1.40439349      -1.22151595       0.00000000
Si       1.10721502      -1.80977015       1.61399596       0.00000000
Si       1.72530650       2.01170099       2.45724711       0.00000000
H       -2.58354515       2.37304577       1.03432464       0.00000000
Si       1.90299782       3.12386817       0.37680533       0.00000000
Si      -2.48572370      -0.04548168      -2.80317010       0.00000000
Si       0.11808621      -2.68319923      -2.69657060       0.00000000
Si       0.15266988       2.64943820      -2.73437080       0.00000000
