10
Lattice="16.2900001489832 0.0 0.0 0.0 16.2900001489832 0.0 0.0 0.0 29.18935068521919" Properties=species:S:1:pos:R:3:initial_magmoms:R:1 pbc="T T T"
Si       0.73332694      -1.78857686      -1.32998357       0.00000000
Si      -2.00327906       0.35908047      -1.17799463       0.00000000
Si      -0.90280810      -1.04304871       1.91139166       0.00000000
Si       1.24716241       2.02585700      -0.03508560       0.00000000
Si      -2.14980761      -2.66033621       0.63209539       0.00000000
Si      -0.08926920      -1.13554333      -3.46749054       0.00000000
Si       2.25111512       2.25631163       2.12349607       0.00000000
Si      -0.50779188      -3.75319486      -0.75121713       0.00000000
Si      -3.40746567      -1.54158787      -0.97121727       0.00000000
Si      -0.36367425       3.85825396       0.01567468       0.00000000
