10
Lattice="16.2900001489832 0.0 0.0 0.0 16.2900001489832 0.0 0.0 0.0 29.18935068521919" Properties=species:S:1:pos:R:3:initial_magmoms:R:1 pbc="T T T"
Si       0.86367952       0.57754567      -2.03714522       0.00000000
Si      -0.96345577       1.82026091       1.14591261       0.00000000
Si       1.81822466      -0.90719011       1.22400580       0.00000000
Si      -1.75440044      -1.66923632      -0.08898957       0.00000000
Si       0.49407570      -2.27853119       2.57153217       0.00000000
Si      -2.26232264       0.60116617       2.68992418       0.00000000
Si       0.94983733      -1.42348537      -3.28639105       0.00000000
Si      -0.79280173      -3.53185122       1.03223468       0.00000000
Si       1.48287871       2.87300217      -2.02450623       0.00000000
Si      -3.48930174      -0.82989406       1.31315591       0.00000000
