10
Lattice="16.2900001489832 0.0 0.0 0.0 16.2900001489832 0.0 0.0 0.0 29.18935068521919" Properties=species:S:1:pos:R:3:initial_magmoms:R:1 pbc="T T T"
Si       1.24980139       1.84658555       0.60343145       0.00000000
Si       0.18187785      -0.48812985      -2.27023094       0.00000000
Si       1.13775877      -2.09943893       0.56814152       0.00000000
Si      -2.24591861       1.13165002       0.31822230       0.00000000
H       -1.82092880      -1.02102463       1.58057415       0.00000000
Si      -1.15373926      -2.40658688      -2.33987673       0.00000000
Si       0.30985209       3.44882109      -0.85612366       0.00000000
H        2.90994789      -1.62937468      -1.45068154       0.00000000
Si      -1.97441318       2.84685672      -1.34034579       0.00000000
Si      -1.60062283      -1.81863191       2.86248286       0.00000000
