10
Lattice="16.2900001489832 0.0 0.0 0.0 16.2900001489832 0.0 0.0 0.0 29.18935068521919" Properties=species:S:1:pos:R:3:initial_magmoms:R:1 pbc="T T T"
Si       1.32655987      -1.42565194       1.28908929       0.00000000
Si       1.43707123       1.35578148      -1.29524825       0.00000000
Si      -1.30238551      -1.44684523      -1.34457825       0.00000000
Si      -1.29707497       1.36925873       1.45339615       0.00000000
Si      -2.66307293      -0.08566911      -2.68372728       0.00000000
Si       2.62009991      -0.08814519       2.73048862       0.00000000
Si       0.06164136       2.77182335      -2.59256894       0.00000000
Si      -0.09226656      -2.78441715       2.58929973       0.00000000
Si      -2.69254154      -2.73453717       0.12758665       0.00000000
Si       2.83072962      -0.04549797      -2.60290197       0.00000000
