10
Lattice="16.2900001489832 0.0 0.0 0.0 16.2900001489832 0.0 0.0 0.0 29.18935068521919" Properties=species:S:1:pos:R:3:initial_magmoms:R:1 pbc="T T T"
Si      -0.84071062       0.80977591      -2.06678116       0.00000000
Si       0.71612470       1.76981078       1.44072797       0.00000000
Si      -1.95691772      -0.77020750       1.21408726       0.00000000
Si       1.88897213      -1.71106904      -0.05884573       0.00000000
Si      -0.65650330      -2.23246307       2.58329256       0.00000000
Si       2.10411027       0.52458687       2.87424909       0.00000000
Si       1.77917753       3.29618379       0.05073109       0.00000000
Si       0.88505200      -3.43069032       1.23279179       0.00000000
Si      -2.78001885      -0.48298221      -2.47365152       0.00000000
Si       3.44623587      -0.72549145       1.42247879       0.00000000
