10
Lattice="16.2900001489832 0.0 0.0 0.0 16.2900001489832 0.0 0.0 0.0 29.18935068521919" Properties=species:S:1:pos:R:3:initial_magmoms:R:1 pbc="T T T"
Si       0.30742488       2.13044206      -0.85291283       0.00000000
Si       2.25020288      -0.74583440       0.19612325       0.00000000
Si      -1.26066682      -0.64138292      -1.92071765       0.00000000
Si      -1.45186255       0.42082120       1.90623974       0.00000000
H       -0.93573019       2.38130806      -1.62818198       0.00000000
Si      -2.75871153      -2.01361995      -0.80656014       0.00000000
Si      -3.28968408       1.36912890       0.67424481       0.00000000
Si       2.04296150      -2.73401263       1.40826941       0.00000000
Si       0.08074953      -1.86249762      -3.40502533       0.00000000
Si       0.22726179       3.81178184       0.71887533       0.00000000
