10
Lattice="16.2900001489832 0.0 0.0 0.0 16.2900001489832 0.0 0.0 0.0 29.18935068521919" Properties=species:S:1:pos:R:3:initial_magmoms:R:1 pbc="T T T"
Si      -0.42270921       1.71245206       1.54534260       0.00000000
Si       2.27960633       0.09451621      -0.55795444       0.00000000
Si      -0.08676054      -2.27975457       0.56749936       0.00000000
Si      -1.63719388       0.59736571      -1.63559608       0.00000000
Si      -2.42997932      -2.48440584       0.47190423       0.00000000
Si       1.67995514       2.01992581       2.39580353       0.00000000
Si       2.78624163       2.18623042       0.32423531       0.00000000
Si      -2.21275217       0.96817824       2.80798635       0.00000000
Si       2.33834807      -0.03498115      -2.87512185       0.00000000
Si       0.88637149      -3.38595961      -1.28707523       0.00000000
