10
Lattice="16.2900001489832 0.0 0.0 0.0 16.2900001489832 0.0 0.0 0.0 29.18935068521919" Properties=species:S:1:pos:R:3:initial_magmoms:R:1 pbc="T T T"
Si      -1.32414895      -1.37134108       1.34752637       0.00000000
Si       1.41521005       1.46329813       1.19188876       0.00000000
Si       1.41103981      -1.23784453      -1.43546513       0.00000000
Si      -1.81822466       0.90719011      -1.22400580       0.00000000
H        2.40134150      -0.22452507      -2.00464579       0.00000000
Si      -2.61102638      -2.62466111      -0.19177112       0.00000000
Si      -0.95454514       1.48473577      -3.26115102       0.00000000
Si      -0.02497257       2.86187610       2.45170113       0.00000000
Si       2.87681403       0.10275732       2.49023107       0.00000000
Si      -2.69899238       0.01580130       2.69222138       0.00000000
