10
Lattice="16.2900001489832 0.0 0.0 0.0 16.2900001489832 0.0 0.0 0.0 29.18935068521919" Properties=species:S:1:pos:R:3:initial_magmoms:R:1 pbc="T T T"
H        1.25302681       0.58099915      -0.58007997       0.00000000
Si       0.08016309      -1.68133979      -1.57178816       0.00000000
Si      -1.72353089       1.47499435      -0.49128596       0.00000000
Si       0.43743537      -0.54522631       2.22256473       0.00000000
H        0.97243156       2.06239547       0.71146123       0.00000000
H       -1.16299198      -1.43047378      -2.34705731       0.00000000
Si       2.48357342       2.20477007       0.87229456       0.00000000
Si      -0.39900726       3.03135726      -1.80001969       0.00000000
Si       2.48495807      -1.65884330       2.03843831       0.00000000
Si       1.87991489      -1.16206345      -2.96709750       0.00000000
