10
Lattice="16.2900001489832 0.0 0.0 0.0 16.2900001489832 0.0 0.0 0.0 29.18935068521919" Properties=species:S:1:pos:R:3:initial_magmoms:R:1 pbc="T T T"
Si       1.37761436      -1.31372335      -1.37779573       0.00000000
Si      -1.32504490      -1.44425512       1.33369062       0.00000000
Si       1.43868557       1.25967313       1.40135154       0.00000000
Si      -1.36430380       1.28137141      -1.48185577       0.00000000
H       -0.79361623       1.38354229       2.88787760       0.00000000
Si      -2.56271024      -2.71961552      -0.26448471       0.00000000
Si      -2.64922643       2.66519063      -0.05592680       0.00000000
Si       0.02349018       2.67517640       2.70197062       0.00000000
Si       0.07634734       2.68364720      -2.72371377       0.00000000
Si       2.78068674       2.65670354      -0.00335678       0.00000000
