10
Lattice="16.2900001489832 0.0 0.0 0.0 16.2900001489832 0.0 0.0 0.0 29.18935068521919" Properties=species:S:1:pos:R:3:initial_magmoms:R:1 pbc="T T T"
Si      -1.67570345      -1.55901817       0.48217888       0.00000000
Si       2.00292068      -1.10827387       0.48711188       0.00000000
Si      -0.03758103       0.56881423      -2.30330247       0.00000000
Si      -0.27886851       2.23143680       0.76624964       0.00000000
H        2.09445419       1.78230521      -1.12253486       0.00000000
H       -1.03386115       3.03098259      -0.69009463       0.00000000
Si      -3.58393035      -0.24707043      -0.05035163       0.00000000
Si      -1.30334662       2.53964360      -2.20207381       0.00000000
Si       3.00156285      -1.13938777      -1.67651955       0.00000000
Si       3.20321676       0.55307809       1.60649429       0.00000000
