10
Lattice="16.2900001489832 0.0 0.0 0.0 16.2900001489832 0.0 0.0 0.0 29.18935068521919" Properties=species:S:1:pos:R:3:initial_magmoms:R:1 pbc="T T T"
Si      -0.29841651       1.29476179       0.73259432       0.00000000
H       -2.70433550      -0.79242706       0.45625874       0.00000000
Si       2.19683684      -0.35912934      -1.91356626       0.00000000
Si      -1.30272760      -1.01732680      -2.45351087       0.00000000
Si      -1.26550495       0.57650311       2.80098090       0.00000000
Si      -1.59373216       2.64495845      -0.69666223       0.00000000
Si       0.44255043       0.53954110      -3.17180241       0.00000000
Si       1.64089172       2.58751991       1.13946468       0.00000000
Si      -3.16170984      -0.77278132      -0.95186473       0.00000000
Si      -0.26674875       2.69218316      -2.59907816       0.00000000
