10
Lattice="16.2900001489832 0.0 0.0 0.0 16.2900001489832 0.0 0.0 0.0 29.18935068521919" Properties=species:S:1:pos:R:3:initial_magmoms:R:1 pbc="T T T"
Si       1.22807053       1.31258305       1.49319583       0.00000000
Si      -1.45872064       1.35299854      -1.22983491       0.00000000
Si      -1.54872289      -1.35853714       1.22091757       0.00000000
Si       1.25897266      -1.36213723      -1.51802137       0.00000000
Si      -2.49572576      -0.33578577      -2.52460621       0.00000000
Si       2.53729784       2.59660973       0.02821151       0.00000000
Si      -0.53121690      -1.79317064      -3.13737357       0.00000000
Si      -0.22084353      -2.71148681       2.56283958       0.00000000
Si       2.55938708      -2.82439281      -0.14881607       0.00000000
Si       2.59442687      -0.08579943       2.80992744       0.00000000
