10
Lattice="16.2900001489832 0.0 0.0 0.0 16.2900001489832 0.0 0.0 0.0 29.18935068521919" Properties=species:S:1:pos:R:3:initial_magmoms:R:1 pbc="T T T"
Si       1.08372484      -1.65481967       1.21830512       0.00000000
Si      -1.34141635       1.22111470       1.48430767       0.00000000
Si      -1.29354004      -1.33750675      -1.44139933       0.00000000
Si       1.48600639       1.35702217      -1.25309882       0.00000000
Si       3.35885142      -1.15443973       0.93890465       0.00000000
Si      -2.62009991       0.08814519      -2.73048862       0.00000000
Si       0.14649597       2.77568733      -2.60167602       0.00000000
Si      -2.71236647      -2.69627195      -0.14118889       0.00000000
Si      -2.83946106      -0.15112233       2.59846519       0.00000000
Si      -2.63322965       2.81247667       0.24889759       0.00000000
