10
Lattice="16.2900001489832 0.0 0.0 0.0 16.2900001489832 0.0 0.0 0.0 29.18935068521919" Properties=species:S:1:pos:R:3:initial_magmoms:R:1 pbc="T T T"
Si      -1.30922731      -1.28402668       1.46498432       0.00000000
Si      -1.42869817       1.48608784      -1.14527628       0.00000000
Si       1.38626272       1.44066481       1.27916492       0.00000000
Si       1.39471723      -1.41872869      -1.31959217       0.00000000
Si      -2.53729784      -2.59660973      -0.02821151       0.00000000
Si       2.45777006       0.10764432      -2.70958905       0.00000000
Si       2.71181261       0.05186736       2.67800617       0.00000000
Si      -0.15558579       2.80020216      -2.59239030       0.00000000
Si       2.78270280      -2.66395259       0.11392895       0.00000000
Si       0.05712903      -2.68240916       2.78171593       0.00000000
