10
Lattice="16.2900001489832 0.0 0.0 0.0 16.2900001489832 0.0 0.0 0.0 29.18935068521919" Properties=species:S:1:pos:R:3:initial_magmoms:R:1 pbc="T T T"
Si       1.40778181       1.36528120       1.30228288       0.00000000
Si      -1.28505295       1.47326761      -1.31451322       0.00000000
Si       1.35172792      -1.28962067      -1.47689358       0.00000000
Si      -1.40789584      -1.28127204       1.44064040       0.00000000
Si      -2.73742050      -2.61303271       0.01657955       0.00000000
Si       0.02098152       2.82828612       2.51784420       0.00000000
Si       2.67727781      -2.67841811      -0.07805232       0.00000000
Si      -2.74506051       0.21300804      -2.62700653       0.00000000
Si       2.73755283      -0.07885989       2.68988623       0.00000000
Si       2.69097770       2.75072943      -0.14530459       0.00000000
