10
Lattice="16.2900001489832 0.0 0.0 0.0 16.2900001489832 0.0 0.0 0.0 29.18935068521919" Properties=species:S:1:pos:R:3:initial_magmoms:R:1 pbc="T T T"
Si      -1.25302681      -0.58099915       0.58007997       0.00000000
H       -0.28059525       1.48139632       1.29154120       0.00000000
Si       1.23054661       1.62377092       1.45237452       0.00000000
Si      -1.17286372      -2.26233893      -0.99170819       0.00000000
Si       0.62688808      -1.74306260      -2.38701753       0.00000000
Si      -2.97655770       0.89399521       0.08879400       0.00000000
Si      -0.81559144      -1.12622545       2.80264470       0.00000000
Si       2.73733905       1.54391734      -0.45065439       0.00000000
Si      -1.65203408       2.45035811      -1.21993972       0.00000000
Si       0.70643215       2.78101254      -1.66636165       0.00000000
