10
Lattice="16.2900001489832 0.0 0.0 0.0 16.2900001489832 0.0 0.0 0.0 29.18935068521919" Properties=species:S:1:pos:R:3:initial_magmoms:R:1 pbc="T T T"
Si       1.51114186       0.14237460       0.16083332       0.00000000
H        0.28059525      -1.48139632      -1.29154120       0.00000000
H       -1.23302269       1.91000252       0.45862308       0.00000000
Si      -0.97243156      -2.06239547      -0.71146123       0.00000000
Si       1.14008824       1.84924082       1.72290142       0.00000000
Si      -2.69596244      -0.58740112      -1.20274719       0.00000000
Si      -1.37143882       0.96896179      -2.51148092       0.00000000
Si      -0.53499618      -2.60762177       1.51110350       0.00000000
Si      -1.73566694       2.54493785      -0.82637971       0.00000000
Si      -0.69846634       1.13862214       2.97853972       0.00000000
