10
Lattice="16.2900001489832 0.0 0.0 0.0 16.2900001489832 0.0 0.0 0.0 29.18935068521919" Properties=species:S:1:pos:R:3:initial_magmoms:R:1 pbc="T T T"
Si      -0.99864217       0.03111390       2.16363143       0.00000000
Si       2.39482550      -0.21810681       0.11091953       0.00000000
Si      -0.92776438       1.57398868      -1.58877636       0.00000000
Si      -1.18200241      -1.89268625      -1.04932797       0.00000000
Si       0.48796695       2.57382002       1.07664920       0.00000000
H       -0.90710866       2.92169298       0.55398469       0.00000000
Si      -3.03914388       1.70820200      -0.62678293       0.00000000
Si       2.85209069      -0.23074785      -2.18216667       0.00000000
Si      -3.00156285       1.13938777       1.67651955       0.00000000
Si       0.20165391       1.69246586       3.28301384       0.00000000
