10
Lattice="16.2900001489832 0.0 0.0 0.0 16.2900001489832 0.0 0.0 0.0 29.18935068521919" Properties=species:S:1:pos:R:3:initial_magmoms:R:1 pbc="T T T"
Si      -1.34004799      -1.28567197       1.45184328       0.00000000
Si       1.54155529      -1.19822725      -1.35050077       0.00000000
Si      -1.30041442       1.46225557      -1.36920531       0.00000000
Si       1.31996242       1.35477415       1.53281453       0.00000000
H       -0.35391654      -2.97349518      -1.74469127       0.00000000
Si       0.65650330       2.23246307      -2.58329256       0.00000000
Si       2.54547542       0.52139403      -2.64213829       0.00000000
Si      -2.55938708       2.82439281       0.14881607       0.00000000
Si       2.84706637      -2.53964360       0.10640686       0.00000000
Si       0.12155598      -2.64621278       2.75018559       0.00000000
