10
Lattice="16.2900001489832 0.0 0.0 0.0 16.2900001489832 0.0 0.0 0.0 29.18935068521919" Properties=species:S:1:pos:R:3:initial_magmoms:R:1 pbc="T T T"
Si       1.39507561      -0.34787295       0.52266451       0.00000000
Si      -0.62804467       2.00599949       1.17049296       0.00000000
Si      -0.02065572      -1.34770429      -2.14276104       0.00000000
Si      -2.13203522      -1.21349098      -1.18076761       0.00000000
Si       0.11707623       2.59100597      -1.07554000       0.00000000
Si       0.59320036       0.88280398      -2.65325360       0.00000000
Si       1.12624174       1.10732905       2.42872911       0.00000000
Si      -2.09445419      -1.78230521       1.12253486       0.00000000
Si      -2.37332270       0.44913159       1.88878450       0.00000000
Si       0.90710866      -2.92169298      -0.55398469       0.00000000
