10
Lattice="16.2900001489832 0.0 0.0 0.0 16.2900001489832 0.0 0.0 0.0 29.18935068521919" Properties=species:S:1:pos:R:3:initial_magmoms:R:1 pbc="T T T"
Si      -1.49760487      -1.35218404       1.21509429       0.00000000
Si      -1.36635634       1.39838248      -1.31673161       0.00000000
Si       1.28492263      -1.38381922      -1.42592897       0.00000000
Si       1.33024141       1.41400459       1.36089510       0.00000000
H        1.85561021      -1.28164834       2.94380440       0.00000000
Si       2.64922643      -2.66519063       0.05592680       0.00000000
Si       2.65468358       2.73427653      -0.10370976       0.00000000
Si       2.72557377       0.01845657      -2.66778698       0.00000000
Si      -2.59442687       0.08579943      -2.80992744       0.00000000
Si       2.67271661       0.00998577       2.75789742       0.00000000
