10
Lattice="16.2900001489832 0.0 0.0 0.0 16.2900001489832 0.0 0.0 0.0 29.18935068521919" Properties=species:S:1:pos:R:3:initial_magmoms:R:1 pbc="T T T"
Si      -1.68733451       1.41701824      -0.85425554       0.00000000
Si       0.47612412      -1.70820200      -1.57771359       0.00000000
Si       1.96566545       1.36058968      -0.12309149       0.00000000
Si      -0.74512090      -0.58500649       2.24603297       0.00000000
H       -0.11707623      -2.59100597       1.07554000       0.00000000
Si      -1.45442008       1.56763558       2.81875722       0.00000000
Si       1.27799938      -2.93887893       1.59820452       0.00000000
Si      -0.27673452      -0.83670328      -3.63915311       0.00000000
Si       1.31121469       3.39675825       0.96797725       0.00000000
Si       3.60628186       0.11482821       1.12419865       0.00000000
