10
Lattice="16.2900001489832 0.0 0.0 0.0 16.2900001489832 0.0 0.0 0.0 29.18935068521919" Properties=species:S:1:pos:R:3:initial_magmoms:R:1 pbc="T T T"
Si       1.32504490       1.44425512      -1.33369062       0.00000000
Si      -1.94724146       0.91945648       1.01447588       0.00000000
Si      -1.23766534      -1.27536040      -1.59817533       0.00000000
Si       1.41152395      -1.39188277       1.36617837       0.00000000
H        0.53142867       2.82779742       1.55418698       0.00000000
Si      -2.64016919      -2.55555893      -0.22960343       0.00000000
Si       2.64733354      -2.69351894      -0.14591756       0.00000000
Si      -3.58735125      -0.81019945       1.00633205       0.00000000
Si       2.70265926       0.13053177      -2.71148635       0.00000000
Si       2.76373047       2.70392825       0.06766091       0.00000000
