10
Lattice="16.2900001489832 0.0 0.0 0.0 16.2900001489832 0.0 0.0 0.0 29.18935068521919" Properties=species:S:1:pos:R:3:initial_magmoms:R:1 pbc="T T T"
Si      -1.08372484       1.65481967      -1.21830512       0.00000000
Si      -0.35575731      -2.21592872      -0.61326826       0.00000000
Si       2.27512658       0.50037993      -0.27940046       0.00000000
Si      -0.61030486      -0.40931883       2.25076164       0.00000000
Si       2.93641914      -1.39191535       0.93216191       0.00000000
H        2.34887141      -0.98256394      -2.29115970       0.00000000
Si       1.34241004      -3.22522455       0.74672197       0.00000000
Si      -2.37726488       0.31731291      -2.65970445       0.00000000
Si      -0.08659764      -2.68553684       2.53707998       0.00000000
Si      -2.42514119       2.87593437       0.26600255       0.00000000
