10
Lattice="16.2900001489832 0.0 0.0 0.0 16.2900001489832 0.0 0.0 0.0 29.18935068521919" Properties=species:S:1:pos:R:3:initial_magmoms:R:1 pbc="T T T"
Si      -1.33024141      -1.41400459      -1.36089510       0.00000000
Si       1.32444217       1.32027193      -1.46460486       0.00000000
Si      -1.42122106       1.29875284       1.40266506       0.00000000
Si       1.34247520      -1.40401882       1.39700232       0.00000000
H        0.52536879      -2.69565293       1.58290930       0.00000000
Si       2.70523471       2.58695465      -0.08631291       0.00000000
Si       0.06125040       2.56500713       2.76332664       0.00000000
Si      -2.69659775      -0.01562211      -2.67762671       0.00000000
Si       0.45162396      -1.21270906       3.59466854       0.00000000
Si       2.76197767      -0.06411744      -2.69108300       0.00000000
