10
Lattice="16.2900001489832 0.0 0.0 0.0 16.2900001489832 0.0 0.0 0.0 29.18935068521919" Properties=species:S:1:pos:R:3:initial_magmoms:R:1 pbc="T T T"
Si       0.18481005      -1.78940765       1.42890628       0.00000000
Si       1.86090283       1.41776758       0.14658892       0.00000000
Si      -2.01357434       1.05389785       0.57599346       0.00000000
Si       0.04435767      -1.12132216      -2.08683425       0.00000000
H        1.47887137      -1.56398662      -2.32493178       0.00000000
Si      -0.61693489       0.77097313      -3.29839663       0.00000000
Si      -3.50236632      -0.13872564      -0.76823452       0.00000000
Si      -1.80633296       3.04207608      -0.63615271       0.00000000
Si       3.44311959      -0.07913682       1.20715479       0.00000000
Si      -2.00683028      -2.61294860       1.57569953       0.00000000
