10
Lattice="16.2900001489832 0.0 0.0 0.0 16.2900001489832 0.0 0.0 0.0 29.18935068521919" Properties=species:S:1:pos:R:3:initial_magmoms:R:1 pbc="T T T"
H       -0.81710641      -1.29163411       0.18590697       0.00000000
Si      -0.89085124       0.19130976       2.19766621       0.00000000
Si       1.41519539      -1.41550327      -1.30061909       0.00000000
Si      -1.34247520       1.40401882      -1.39700232       0.00000000
Si       2.07106175       0.79467508       1.43532794       0.00000000
Si      -0.02349018      -2.67517640      -2.70197062       0.00000000
Si       2.67296096       2.70459614       0.03453100       0.00000000
Si      -0.22955868      -1.70098553       3.40922859       0.00000000
Si      -2.67271661      -0.00998577      -2.75789742       0.00000000
Si      -0.49428747       2.36094230       3.00521879       0.00000000
