10
Lattice="16.2900001489832 0.0 0.0 0.0 16.2900001489832 0.0 0.0 0.0 29.18935068521919" Properties=species:S:1:pos:R:3:initial_magmoms:R:1 pbc="T T T"
Si      -1.43905536       1.30551482      -1.36005444       0.00000000
Si       1.44019891      -1.26475561      -1.39992126       0.00000000
Si       1.37580454       1.42418747       1.31334564       0.00000000
Si      -1.31159751      -1.33729498       1.47280707       0.00000000
Si       0.12233790       2.43656048      -2.70019007       0.00000000
Si      -0.07703541      -2.47000385      -2.72634373       0.00000000
Si      -2.67824282      -2.66872556       0.13520799       0.00000000
Si       2.72714150      -2.69796611      -0.05795837       0.00000000
Si       2.68690520       0.08110791       2.75658390       0.00000000
Si      -2.74913301       0.04709439       2.69928520       0.00000000
