10
Lattice="16.2900001489832 0.0 0.0 0.0 16.2900001489832 0.0 0.0 0.0 29.18935068521919" Properties=species:S:1:pos:R:3:initial_magmoms:R:1 pbc="T T T"
Si      -0.18210591       0.15641658      -2.37899046       0.00000000
Si       0.97251952      -2.19447479       0.06623064       0.00000000
Si       1.97184587       1.37577196       0.35050572       0.00000000
Si      -1.73680072       0.53520795       1.71522462       0.00000000
Si      -0.17953698       1.52078554       3.19654915       0.00000000
Si       1.07954483       2.96958558       1.78676772       0.00000000
Si       2.13914418       0.44623197      -3.01546425       0.00000000
Si      -0.46346354      -2.08547840      -3.07667432       0.00000000
Si       3.06505149      -1.89526007       1.19650067       0.00000000
Si       2.60085165       2.30677805      -1.70836513       0.00000000
