10
Lattice="16.2900001489832 0.0 0.0 0.0 16.2900001489832 0.0 0.0 0.0 29.18935068521919" Properties=species:S:1:pos:R:3:initial_magmoms:R:1 pbc="T T T"
Si      -1.30923057       1.38600208      -1.36407674       0.00000000
Si       1.47022138      -1.31134501      -1.28783415       0.00000000
Si       0.88733260       1.77658742       1.27887302       0.00000000
Si      -1.04986445      -1.59808159       1.41798947       0.00000000
H        1.37239993       1.10718244       2.54966059       0.00000000
Si      -2.54504015       2.68763825       0.14801920       0.00000000
Si       2.59682150      -2.66567933       0.25237113       0.00000000
Si      -2.56578703      -2.76719862       0.05645220       0.00000000
Si       0.12800682      -2.67905342      -2.67724724       0.00000000
Si      -2.61236216       0.06239070      -2.77873862       0.00000000
