10
Lattice="16.2900001489832 0.0 0.0 0.0 16.2900001489832 0.0 0.0 0.0 29.18935068521919" Properties=species:S:1:pos:R:3:initial_magmoms:R:1 pbc="T T T"
Si       0.58751515      -0.62758855      -1.25029665       0.00000000
Si      -1.68489101       1.77590324       1.03563816       0.00000000
Si       0.47772054       2.49383612       1.77409955       0.00000000
Si      -1.12366792      -1.58197078      -2.51343661       0.00000000
Si       1.64299313       1.03772188      -2.61466528       0.00000000
Si       2.02952225      -2.47570535      -0.71782451       0.00000000
Si       2.59116887       1.41763726       1.76487571       0.00000000
H       -1.54054531      -1.90182494       2.61250526       0.00000000
Si      -2.66896991       2.82496296      -0.98219246       0.00000000
H       -2.45702072      -3.22652775      -0.06030520       0.00000000
