10
Lattice="16.2900001489832 0.0 0.0 0.0 16.2900001489832 0.0 0.0 0.0 29.18935068521919" Properties=species:S:1:pos:R:3:initial_magmoms:R:1 pbc="T T T"
Si       1.29057526      -1.53865567      -1.09740283       0.00000000
Si       0.31830660       2.08627661      -0.91359749       0.00000000
Si      -2.30358521      -0.47607525       0.06158953       0.00000000
Si       0.62581294       0.33052410       2.27422988       0.00000000
H        1.59332491       2.55932192      -0.23217210       0.00000000
Si       0.23584662      -3.39829668      -0.06045115       0.00000000
Si      -2.88512193       1.46408005      -1.11503320       0.00000000
Si      -1.61084807       3.10034541      -0.14007969       0.00000000
Si      -1.42027461       1.08465337       3.21465238       0.00000000
Si      -2.75007783      -0.61286239       2.36944554       0.00000000
