10
Lattice="16.2900001489832 0.0 0.0 0.0 16.2900001489832 0.0 0.0 0.0 29.18935068521919" Properties=species:S:1:pos:R:3:initial_magmoms:R:1 pbc="T T T"
Si      -0.61222708      -2.13024332      -0.68338108       0.00000000
Si      -1.30917844       1.69217264      -0.89888605       0.00000000
Si      -0.20417886       0.07569963       2.34553946       0.00000000
Si       2.17456841       0.19424196      -0.92644080       0.00000000
H        0.32048946      -2.88645771       0.25566952       0.00000000
H        1.78593788       2.30410649       1.25140584       0.00000000
H        1.41501457      -1.41266881      -2.70716633       0.00000000
Si      -0.18217107       1.74506627      -3.10983342       0.00000000
Si       3.05766561       1.79152535       0.58988759       0.00000000
Si      -0.88526377       3.60743682       0.39405623       0.00000000
