10
Lattice="16.28999089631971 0.0 0.0 0.0 16.28999089631971 0.0 0.0 0.0 34.71893929493243" Properties=species:S:1:pos:R:3:initial_magmoms:R:1 pbc="T T T"
Si       1.50589647      -1.19471723       1.30147489       0.00000000
Si      -1.19584890       1.54500550       1.28526113       0.00000000
Si      -1.67343912      -0.97715239      -1.33174669       0.00000000
Si       1.84480992       0.83984398      -1.28293913       0.00000000
Si       0.35435637       0.61650808      -3.07185157       0.00000000
Si      -0.11046249      -1.67621886      -2.94106525       0.00000000
Si       0.15864831      -2.52452061       2.65554205       0.00000000
Si      -2.63277351      -2.55477114       0.06498000       0.00000000
Si      -2.56209120       0.18960257       2.65325060       0.00000000
Si       2.66810652      -2.64141765      -0.16409221       0.00000000
