10
Lattice="16.28999089631971 0.0 0.0 0.0 16.28999089631971 0.0 0.0 0.0 34.71893929493243" Properties=species:S:1:pos:R:3:initial_magmoms:R:1 pbc="T T T"
Si       1.79794359       0.41345160       1.49034602       0.00000000
Si      -0.00853596      -2.37418183       0.05322416       0.00000000
Si       1.03650012       1.19770107      -1.81288515       0.00000000
Si      -2.21399345       0.96004626       0.13998684       0.00000000
Si       0.16944858       0.38505813       3.24584073       0.00000000
Si       1.10446200      -2.63661373      -2.01147759       0.00000000
Si      -1.44539541       3.22754910      -0.04680116       0.00000000
Si       1.39949019      -0.61307741      -3.23344606       0.00000000
Si       2.36537316       2.68344681       0.99973242       0.00000000
Si      -0.54819108       2.92947468      -2.27617493       0.00000000
