10
Lattice="16.28999089631971 0.0 0.0 0.0 16.28999089631971 0.0 0.0 0.0 34.71893929493243" Properties=species:S:1:pos:R:3:initial_magmoms:R:1 pbc="T T T"
Si       1.35711990      -1.35736425      -1.36195531       0.00000000
Si      -1.35783666       1.36000323      -1.36317048       0.00000000
Si      -1.35361755      -1.35332433       1.39872269       0.00000000
Si       1.36671471       1.34939844       1.39420922       0.00000000
Si       2.71301805      -2.71604799      -0.00034719       0.00000000
Si       2.71355562       2.71728603      -0.00527728       0.00000000
Si      -2.71645524       2.71510317      -0.00531200       0.00000000
Si      -2.71704168      -2.71487511       0.00145820       0.00000000
Si       2.71458189       0.00026064      -2.71936244       0.00000000
Si      -0.00040725      -2.71529865      -2.71939716       0.00000000
