10
Lattice="16.28999089631971 0.0 0.0 0.0 16.28999089631971 0.0 0.0 0.0 34.71893929493243" Properties=species:S:1:pos:R:3:initial_magmoms:R:1 pbc="T T T"
Si      -2.08686303       0.18984366       1.09514011       0.00000000
Si       0.40892787      -2.26940877      -0.56529409       0.00000000
Si       1.44361980       0.53742339       1.84954837       0.00000000
Si       0.70623666       1.39949019      -2.12365455       0.00000000
Si      -1.58498442       0.85058235      -2.64874408       0.00000000
Si      -2.19717891      -1.53966564      -2.36394446       0.00000000
Si       2.25295587       2.59458975       1.04979715       0.00000000
Si      -2.71432125       2.37689019       0.75385275       0.00000000
Si      -1.03508289      -3.45007539       0.92095510       0.00000000
Si       3.18031299      -1.07613369       1.61529955       0.00000000
