10
Lattice="16.28999089631971 0.0 0.0 0.0 16.28999089631971 0.0 0.0 0.0 34.71893929493243" Properties=species:S:1:pos:R:3:initial_magmoms:R:1 pbc="T T T"
Si       1.37914398       1.88926533       0.07079196       0.00000000
Si       0.74355705      -2.23474365      -0.40822552       0.00000000
Si      -1.44567234       0.49448295      -1.86506774       0.00000000
Si      -1.41669243      -0.12181662       1.97050922       0.00000000
Si      -1.66439817      -2.46778839       1.89131528       0.00000000
Si      -1.05213852      -2.96730495      -1.67709930       0.00000000
Si      -0.00224802       3.37287708       1.37306538       0.00000000
Si      -3.63206727       0.45986670      -0.85738469       0.00000000
Si       0.52232256      -3.42365301       1.57387984       0.00000000
Si      -3.38693535       1.12378194       1.40531929       0.00000000
