10
Lattice="16.28999089631971 0.0 0.0 0.0 16.28999089631971 0.0 0.0 0.0 34.71893929493243" Properties=species:S:1:pos:R:3:initial_magmoms:R:1 pbc="T T T"
Si       0.93522519      -1.74674412      -1.33980462       0.00000000
Si       1.66112388       1.10317509       1.32760927       0.00000000
Si      -1.06916157      -1.65869667       1.37873989       0.00000000
Si      -1.30293936       1.88501364      -1.20499090       0.00000000
Si      -2.30480694      -0.30460671       2.85204931       0.00000000
Si       2.12981976       1.76275719      -2.47969747       0.00000000
Si       0.42222051       2.41285851       2.85453866       0.00000000
Si       1.83133809      -0.46806057      -3.25917281       0.00000000
Si       2.73426021      -2.64564261       0.19085050       0.00000000
Si       2.74813929       2.65676868      -0.19525942       0.00000000
