10
Lattice="16.28999089631971 0.0 0.0 0.0 16.28999089631971 0.0 0.0 0.0 34.71893929493243" Properties=species:S:1:pos:R:3:initial_magmoms:R:1 pbc="T T T"
Si       1.58636907       1.02912075      -1.43555950       0.00000000
Si      -1.17553527      -1.63559745      -1.42486606       0.00000000
Si       1.13484285      -1.32354621       2.02748303       0.00000000
Si      -1.82166183       1.95701448       0.13766067       0.00000000
Si       0.34989291       0.24001686       3.66340565       0.00000000
Si       0.25583445       2.45707676      -2.81810316       0.00000000
Si      -2.46400911      -0.25674669      -2.83580983       0.00000000
Si      -2.88220599      -2.49043149      -0.02253260       0.00000000
Si       0.92711277       2.35384051       3.00350240       0.00000000
Si       3.39099156       2.05170825      -0.28070278       0.00000000
