10
Lattice="16.28999089631971 0.0 0.0 0.0 16.28999089631971 0.0 0.0 0.0 34.71893929493243" Properties=species:S:1:pos:R:3:initial_magmoms:R:1 pbc="T T T"
Si       1.29455001      -1.71795969      -0.92248273       0.00000000
Si       1.19006595       1.93383477      -0.74486054       0.00000000
Si      -2.30630562      -0.10174734      -0.64650173       0.00000000
Si      -0.01495422       0.12707829       2.39560815       0.00000000
Si       3.32114004      -1.04187582      -0.01534578       0.00000000
Si      -1.61764587       1.82578320       2.59708227       0.00000000
Si      -3.25207044       0.70638327       1.37174606       0.00000000
Si       3.47392395       1.18348479      -0.76912909       0.00000000
Si       0.48521394      -3.77512605      -0.12273152       0.00000000
Si       0.46273374       2.32440381      -2.98353900       0.00000000
