10
Lattice="16.28999089631971 0.0 0.0 0.0 16.28999089631971 0.0 0.0 0.0 34.71893929493243" Properties=species:S:1:pos:R:3:initial_magmoms:R:1 pbc="T T T"
Si      -0.82305225       1.44409221       1.70338155       0.00000000
Si      -0.94537386       1.09928178      -1.94044260       0.00000000
Si      -0.91465092      -2.24551134       0.17727500       0.00000000
Si       2.47003641       0.00358380       0.14502109       0.00000000
Si       0.50371938       0.31403862       3.57976767       0.00000000
Si       2.84700330       2.30456131      -0.56442611       0.00000000
Si       1.05559200      -3.49110990       0.74246493       0.00000000
Si      -1.15978284      -2.90942658      -2.08542897       0.00000000
Si      -3.21103430       0.32899284      -2.27468202       0.00000000
Si      -2.91037140       0.68035185       2.60430381       0.00000000
