10
Lattice="16.28999089631971 0.0 0.0 0.0 16.28999089631971 0.0 0.0 0.0 34.71893929493243" Properties=species:S:1:pos:R:3:initial_magmoms:R:1 pbc="T T T"
Si       1.38044718       1.36611198       1.31046710       0.00000000
Si      -1.43163036      -1.37407779       1.48121493       0.00000000
Si       2.00112876      -1.49633424       0.20650837       0.00000000
Si      -1.32677163       1.13005359      -1.87638612       0.00000000
Si      -3.41409078       0.36631323      -0.97546386       0.00000000
Si      -0.18252945       2.06517845       2.91978565       0.00000000
Si      -0.50371938      -0.31403862      -3.57976767       0.00000000
Si       2.61944829      -0.60232275       2.49094641       0.00000000
Si      -3.27955167      -1.91032830      -0.00055550       0.00000000
Si       3.45888828      -1.08079263      -1.61012643       0.00000000
