10
Lattice="16.28999089631971 0.0 0.0 0.0 16.28999089631971 0.0 0.0 0.0 34.71893929493243" Properties=species:S:1:pos:R:3:initial_magmoms:R:1 pbc="T T T"
Si       1.35376416      -1.35454608      -1.35591421       0.00000000
Si       1.35337320       1.34791605       1.36556608       0.00000000
Si      -1.35904212       1.35902583      -1.35480321       0.00000000
Si      -1.35666378      -1.34672688       1.38528645       0.00000000
Si      -0.06090831       2.60765433       2.77765557       0.00000000
Si       2.70839169      -2.70879101       0.00524256       0.00000000
Si       2.71244790       0.00296478      -2.71207146       0.00000000
Si      -0.00239463      -2.71247567      -2.71241865       0.00000000
Si      -2.71736748       0.00242721      -2.71182843       0.00000000
Si      -0.00234576       2.71782360      -2.71179371       0.00000000
