10
Lattice="16.28999089631971 0.0 0.0 0.0 16.28999089631971 0.0 0.0 0.0 34.71893929493243" Properties=species:S:1:pos:R:3:initial_magmoms:R:1 pbc="T T T"
Si      -1.69948683      -0.29109415      -1.56620695       0.00000000
Si       2.28623634       0.25523824      -0.49471044       0.00000000
Si      -0.55027620       1.98386788       1.17659079       0.00000000
Si      -0.08021196      -2.39044414       0.39013694       0.00000000
Si       0.96922242       1.55902468       2.87448675       0.00000000
Si       2.90843289       1.09593256       1.57492140       0.00000000
Si      -1.26765522      -2.79813397      -1.67612717       0.00000000
Si       2.21167701      -3.02981035      -0.03270526       0.00000000
Si      -3.77903565       0.23555340      -0.55859333       0.00000000
Si      -1.34506530      -3.01918927       2.31571983       0.00000000
