10
Lattice="16.28999089631971 0.0 0.0 0.0 16.28999089631971 0.0 0.0 0.0 34.71893929493243" Properties=species:S:1:pos:R:3:initial_magmoms:R:1 pbc="T T T"
Si      -0.12535155       2.12396188       1.07357964       0.00000000
Si      -0.03678282      -1.47071074       1.90777206       0.00000000
Si       2.28361365      -0.18846715      -0.79801527       0.00000000
Si      -1.77520275      -0.37425298      -1.80448316       0.00000000
Si       0.52727472       3.30128905      -0.85943310       0.00000000
Si       2.31189309      -2.45483851      -1.30685632       0.00000000
Si      -2.43196668       2.58231361       1.19579038       0.00000000
Si       2.27274822      -1.31282806       2.78032893       0.00000000
Si       3.76989696      -0.44675162       1.04202011       0.00000000
Si      -0.52496154      -3.76732381       1.22269757       0.00000000
