10
Lattice="16.28999089631971 0.0 0.0 0.0 16.28999089631971 0.0 0.0 0.0 34.71893929493243" Properties=species:S:1:pos:R:3:initial_magmoms:R:1 pbc="T T T"
Si      -1.65351645      -1.04990679       1.29150350       0.00000000
Si      -1.36032903      -0.10521711      -1.91698801       0.00000000
Si       1.14686487       1.72138059       1.27909494       0.00000000
Si       1.80439443      -1.69681527      -0.02740868       0.00000000
Si      -0.63381132      -2.32051050      -2.39121426       0.00000000
Si      -0.15644916      -2.27998098       2.68696260       0.00000000
Si       0.56791827       2.84978889      -2.10710902       0.00000000
Si       2.57338017       0.44453781       2.68910824       0.00000000
Si      -0.43541541       1.23748614      -3.58728239       0.00000000
Si       1.69171650      -1.86810462      -2.95164769       0.00000000
