10
Lattice="16.28999089631971 0.0 0.0 0.0 16.28999089631971 0.0 0.0 0.0 34.71893929493243" Properties=species:S:1:pos:R:3:initial_magmoms:R:1 pbc="T T T"
Si      -1.35656604      -1.35687555       1.35824038       0.00000000
Si       1.35726651      -1.35834165      -1.35751129       0.00000000
Si       1.35796698       1.35922131       1.35817095       0.00000000
Si      -1.35571896       1.36176255      -1.35837926       0.00000000
Si      -2.71552671       2.71334385       0.00142348       0.00000000
Si       0.00027693      -2.71360449       2.71536976       0.00000000
Si       2.71489140      -2.71476108      -0.00006944       0.00000000
Si      -2.71451673       0.00125433       2.71564751       0.00000000
Si      -2.71570590      -2.71534752       0.00031247       0.00000000
Si       2.71524978       0.00171045       2.71589054       0.00000000
