10
Lattice="16.28999089631971 0.0 0.0 0.0 16.28999089631971 0.0 0.0 0.0 34.71893929493243" Properties=species:S:1:pos:R:3:initial_magmoms:R:1 pbc="T T T"
Si       1.36715454       1.35707103       1.34334595       0.00000000
Si      -1.35682668       1.35676152      -1.36139981       0.00000000
Si       1.35726651      -1.36032903      -1.36108734       0.00000000
Si      -1.36019871      -1.37168316       1.35928195       0.00000000
Si       0.07480368      -2.60245782       2.78907811       0.00000000
Si       2.71448415       2.71116099      -0.00663132       0.00000000
Si       2.71189404      -2.71580364      -0.00343718       0.00000000
Si      -2.71733490       2.71186146       0.00124988       0.00000000
Si      -0.00037467       2.71306692      -2.71859862       0.00000000
Si       2.71384884      -0.00131949      -2.71783481       0.00000000
