10
Lattice="16.28999089631971 0.0 0.0 0.0 16.28999089631971 0.0 0.0 0.0 34.71893929493243" Properties=species:S:1:pos:R:3:initial_magmoms:R:1 pbc="T T T"
Si       1.45380594      -1.20759399       1.49792864       0.00000000
Si      -1.27754555       1.49027436       1.47492733       0.00000000
Si       1.20730566       1.44648684      -1.61085001       0.00000000
Si      -0.94206862      -1.92718845      -1.28654022       0.00000000
Si       1.03246509      -3.47477103      -0.99522312       0.00000000
Si      -2.74341749      -2.62777248       0.09241840       0.00000000
Si       2.89739316      -2.49702894       0.09091159       0.00000000
Si       0.08874466      -2.57370597       2.86516818       0.00000000
Si      -2.62867073       0.14481810       2.86947333       0.00000000
Si       2.67202101       2.85433380       0.03293440       0.00000000
