10
Lattice="16.28999089631971 0.0 0.0 0.0 16.28999089631971 0.0 0.0 0.0 34.71893929493243" Properties=species:S:1:pos:R:3:initial_magmoms:R:1 pbc="T T T"
Si       0.31065030      -2.01947130      -1.09080024       0.00000000
Si       1.85919399       0.02803509       1.39757696       0.00000000
Si       0.28009026       1.53210708      -1.74615531       0.00000000
Si      -2.32381737      -0.09084933       0.43839629       0.00000000
Si      -1.20884832      -1.59462810      -2.78869620       0.00000000
Si      -0.56747844      -3.58060553       0.49981413       0.00000000
Si       3.56065191       0.91553058      -0.08152012       0.00000000
Si       1.33947783       1.64905299       3.02652107       0.00000000
Si      -3.17456262      -0.66518586      -1.78962345       0.00000000
Si      -0.41653530       0.44458668      -3.73194087       0.00000000
