10
Lattice="16.28999089631971 0.0 0.0 0.0 16.28999089631971 0.0 0.0 0.0 34.71893929493243" Properties=species:S:1:pos:R:3:initial_magmoms:R:1 pbc="T T T"
Si      -1.05593409      -0.33790347      -2.06751399       0.00000000
Si      -0.80726724       2.06606070       0.84842719       0.00000000
Si      -0.26756325      -1.93978062       1.35699050       0.00000000
Si       2.27555010      -0.21841632      -0.69896208       0.00000000
Si      -2.14004988      -2.35919925      -1.65692758       0.00000000
Si       1.80408492      -1.82768913       2.54521214       0.00000000
Si      -0.60426126      -3.63223017      -0.35014070       0.00000000
Si       2.21185620      -1.90710288      -2.33467638       0.00000000
Si       0.41278860       3.77335044      -0.24140092       0.00000000
Si      -1.87400160       1.73928330      -2.81851979       0.00000000
