10
Lattice="16.28999089631971 0.0 0.0 0.0 16.28999089631971 0.0 0.0 0.0 34.71893929493243" Properties=species:S:1:pos:R:3:initial_magmoms:R:1 pbc="T T T"
Si       1.35710361      -1.35733167       1.35699050       0.00000000
Si      -1.35746199       1.35731109       1.35667803       0.00000000
Si       1.35599589       1.35749457      -1.35806679       0.00000000
Si      -1.35822762      -1.35681039      -1.35740713       0.00000000
Si      -2.71239903       0.00237834      -2.71043967       0.00000000
Si      -2.71396287       0.00114030       2.71363381       0.00000000
Si      -0.00130320       2.71524068       2.71318247       0.00000000
Si      -0.00019548      -2.71435383       2.71467538       0.00000000
Si      -2.71414206      -2.71513575      -0.00069438       0.00000000
Si      -2.71464705       2.71468519      -0.00010416       0.00000000
