10
Lattice="16.28999089631971 0.0 0.0 0.0 16.28999089631971 0.0 0.0 0.0 34.71893929493243" Properties=species:S:1:pos:R:3:initial_magmoms:R:1 pbc="T T T"
Si       1.35681039       1.35818003      -1.35914308       0.00000000
Si      -1.35865116      -1.35713619      -1.35907364       0.00000000
Si       1.35824391      -1.36010097       1.35730297       0.00000000
Si      -1.36243044       1.36119123       1.35827510       0.00000000
Si      -2.71595025      -2.71415835      -0.00138876       0.00000000
Si       2.71479366      -2.71562445      -0.00187482       0.00000000
Si       2.71472850      -0.00014661      -2.71589054       0.00000000
Si      -0.00070047      -2.71531494      -2.71599470       0.00000000
Si      -2.71575477       0.00019548      -2.71606414       0.00000000
Si      -0.00114030       2.71577662      -2.71620301       0.00000000
