10
Lattice="16.28999089631971 0.0 0.0 0.0 16.28999089631971 0.0 0.0 0.0 34.71893929493243" Properties=species:S:1:pos:R:3:initial_magmoms:R:1 pbc="T T T"
Si      -2.30365035      -0.64369935       0.14151448       0.00000000
Si       1.18744326       0.40768983       2.06626411       0.00000000
Si      -0.43183161       2.50703982       0.10992022       0.00000000
Si       0.00340461      -2.07475956      -1.73146919       0.00000000
Si       1.66814487       0.99385290      -2.14660378       0.00000000
Si      -0.04750164       2.73155511      -2.16667134       0.00000000
Si       1.26765522       2.79813397       1.67612717       0.00000000
Si       0.95522931      -0.84286089      -3.41374161       0.00000000
Si      -3.08860029       0.91986372       1.77743709       0.00000000
Si       1.63900206      -3.40395840      -0.61532410       0.00000000
