10
Lattice="16.28999089631971 0.0 0.0 0.0 16.28999089631971 0.0 0.0 0.0 34.71893929493243" Properties=species:S:1:pos:R:3:initial_magmoms:R:1 pbc="T T T"
Si       0.35179884       2.14151598       0.75117939       0.00000000
Si      -1.45775952      -0.41554161       1.81663479       0.00000000
Si       2.26411452      -0.83728971      -0.26299611       0.00000000
Si      -1.49257125       0.77033781      -1.82462016       0.00000000
Si      -0.11117925      -0.71327394      -3.12689358       0.00000000
Si      -1.75624119      -2.64635937       1.03715945       0.00000000
Si       2.20807692      -1.13200839      -2.60996300       0.00000000
Si       0.52556427      -3.53105298       0.98716415       0.00000000
Si      -3.45888828       1.08079263       1.61012643       0.00000000
Si       0.32700546       3.88075434      -0.79534191       0.00000000
