10
Lattice="16.28999089631971 0.0 0.0 0.0 16.28999089631971 0.0 0.0 0.0 34.71893929493243" Properties=species:S:1:pos:R:3:initial_magmoms:R:1 pbc="T T T"
Si      -1.23712776       1.42245909       1.41654393       0.00000000
Si       1.80134887       0.70058403      -1.37895861       0.00000000
Si       1.45483483      -1.32287832       1.40605186       0.00000000
Si      -2.00611350      -0.71889399      -1.29997298       0.00000000
Si       0.51132681      -0.05590728      -3.44640317       0.00000000
Si      -2.66364306       2.69930187       0.00653064       0.00000000
Si       2.74341749       2.62777248      -0.09241840       0.00000000
Si      -2.60037270       0.05334975       2.77722853       0.00000000
Si      -2.72054403      -2.68849834      -0.04123571       0.00000000
Si       0.11635947      -2.65665465       2.77837425       0.00000000
