10
Lattice="16.28999089631971 0.0 0.0 0.0 16.28999089631971 0.0 0.0 0.0 34.71893929493243" Properties=species:S:1:pos:R:3:initial_magmoms:R:1 pbc="T T T"
Si       1.28876706      -1.30205432       1.41559610       0.00000000
Si       1.35705474       1.32950183      -1.35497680       0.00000000
Si      -1.36001952      -1.38308474      -1.35258119       0.00000000
Si      -1.28003562       1.44284765       1.43753848       0.00000000
Si      -0.57427137      -2.16409133       2.58493063       0.00000000
Si      -2.28991788      -0.42638912       2.56486307       0.00000000
Si      -2.71503801       2.67362231       0.00774233       0.00000000
Si       0.00242721       2.68497644      -2.71262696       0.00000000
Si       2.62464480       0.04048717       2.77227413       0.00000000
Si       2.70428661       2.70033791       0.02635169       0.00000000
