10
Lattice="16.28999089631971 0.0 0.0 0.0 16.28999089631971 0.0 0.0 0.0 34.71893929493243" Properties=species:S:1:pos:R:3:initial_magmoms:R:1 pbc="T T T"
Si       1.86857703       0.60274629      -1.34421392       0.00000000
Si      -1.84096548       1.67052321      -0.18119825       0.00000000
Si      -0.78278337      -2.04294519      -1.37362088       0.00000000
Si       0.78325578       0.68561352       2.40418373       0.00000000
Si       0.30128355      -1.51943346       3.06974617       0.00000000
Si       0.59895072       1.84705794      -2.88816602       0.00000000
Si      -0.63472356       3.21751935      -1.47316014       0.00000000
Si      -2.11696695      -0.86392386      -2.88938118       0.00000000
Si       2.87668761       2.36693700       0.07058364       0.00000000
Si      -1.46940687      -2.84959341       1.91395204       0.00000000
