10
Lattice="16.28999089631971 0.0 0.0 0.0 16.28999089631971 0.0 0.0 0.0 34.71893929493243" Properties=species:S:1:pos:R:3:initial_magmoms:R:1 pbc="T T T"
Si      -1.22269482       1.39727475       1.48404453       0.00000000
Si       0.83926080       2.04517692      -0.94145039       0.00000000
Si       1.48822182      -1.32147738       1.44855828       0.00000000
Si      -1.90030995      -0.91696410      -1.32780370       0.00000000
Si       0.25539462      -0.01861947      -3.35938357       0.00000000
Si      -2.46418830       2.74652658      -0.01481111       0.00000000
Si      -2.64129318      -2.74022235       0.07257998       0.00000000
Si      -2.57707800       0.04696407       2.84324316       0.00000000
Si       0.13709664      -2.66693364       2.84310428       0.00000000
Si      -3.53075976       1.06891722      -1.33721254       0.00000000
