10
Lattice="16.28999089631971 0.0 0.0 0.0 16.28999089631971 0.0 0.0 0.0 34.71893929493243" Properties=species:S:1:pos:R:3:initial_magmoms:R:1 pbc="T T T"
Si       1.23367428      -1.37046141      -1.41500588       0.00000000
Si      -1.20624192      -1.54699614       1.29196189       0.00000000
Si      -1.47178521       1.34646624      -1.38823756       0.00000000
Si       1.82506644       1.01747340       1.53943863       0.00000000
Si      -2.09797281       0.24426855       2.70818294       0.00000000
Si       0.63472356      -3.21751935       1.47316014       0.00000000
Si       2.50330059      -2.61477306       0.12894621       0.00000000
Si       2.57940747      -0.01109349      -2.76460124       0.00000000
Si       0.07255566       1.26514656       3.61493798       0.00000000
Si      -2.77623954      -2.67644700      -0.08530448       0.00000000
