10
Lattice="16.28999089631971 0.0 0.0 0.0 16.28999089631971 0.0 0.0 0.0 34.71893929493243" Properties=species:S:1:pos:R:3:initial_magmoms:R:1 pbc="T T T"
Si       0.09881514      -1.85367168       1.63988058       0.00000000
Si      -0.33019830       2.15140401       1.35199097       0.00000000
Si      -2.17052847      -1.02087801      -0.90675504       0.00000000
Si       1.75251078      -0.24767316      -2.07549935       0.00000000
Si       2.78590670       0.10717191       0.13589000       0.00000000
Si      -0.07255566      -1.26514656      -3.61493798       0.00000000
Si       0.96296706       3.72138534      -0.10533732       0.00000000
Si      -1.27879758      -2.81214270      -2.32297609       0.00000000
Si      -2.13833943      -2.31557463       2.41654368       0.00000000
Si       1.34542368      -3.79705239       0.26240589       0.00000000
