10
Lattice="16.28999089631971 0.0 0.0 0.0 16.28999089631971 0.0 0.0 0.0 34.71893929493243" Properties=species:S:1:pos:R:3:initial_magmoms:R:1 pbc="T T T"
Si       0.86270848       1.75053969      -1.45882121       0.00000000
Si       1.03339592       0.35484507       2.21138936       0.00000000
Si       1.68634473      -1.86805575       0.00430515       0.00000000
Si      -1.82506644      -1.01747340      -1.53943863       0.00000000
Si      -1.75251078       0.24767316       2.07549935       0.00000000
Si       2.10922010       0.33490611      -2.92979405       0.00000000
Si       3.39347483      -0.98841204      -1.42712280       0.00000000
Si      -0.59139216      -2.38793481      -2.95444451       0.00000000
Si       2.69259758       2.77478973      -0.02926808       0.00000000
Si       0.67823415      -3.63224646      -1.41049242       0.00000000
