10
Lattice="16.28999089631971 0.0 0.0 0.0 16.28999089631971 0.0 0.0 0.0 34.71893929493243" Properties=species:S:1:pos:R:3:initial_magmoms:R:1 pbc="T T T"
Si       2.00733592       0.97606422       0.57557090       0.00000000
Si       0.64834200      -2.22692445       0.42141872       0.00000000
Si      -1.11716820      -0.43280901      -2.05810515       0.00000000
Si      -1.27162998       1.26519543       1.61134159       0.00000000
Si      -3.18625884       0.30858147       0.75687330       0.00000000
Si       1.90695042       0.39022695       2.91483018       0.00000000
Si       1.78912160       3.18368502      -0.22490941       0.00000000
Si      -3.35432277      -0.89471196      -1.28144205       0.00000000
Si      -0.30877695       0.89858898       3.77464519       0.00000000
Si       2.68467249      -2.76110613      -0.74149280       0.00000000
