10
Lattice="16.28999089631971 0.0 0.0 0.0 16.28999089631971 0.0 0.0 0.0 34.71893929493243" Properties=species:S:1:pos:R:3:initial_magmoms:R:1 pbc="T T T"
Si       1.11716820       0.43280901       2.05810515       0.00000000
Si      -2.23715457      -0.46190295       0.77666311       0.00000000
Si      -0.09881514       1.85367168      -1.63988058       0.00000000
Si       1.24660854      -1.94338071      -1.37747469       0.00000000
Si      -2.26934361       0.83279367      -2.54663562       0.00000000
Si       1.76551020      -1.79411544       2.47952387       0.00000000
Si      -2.06909064       0.74139048       2.81497845       0.00000000
Si       2.68709156       1.96084359      -1.50399057       0.00000000
Si       3.48582121      -0.86411934      -1.14534373       0.00000000
Si      -3.88321020      -0.10722078      -1.01952222       0.00000000
