10
Lattice="16.28999089631971 0.0 0.0 0.0 16.28999089631971 0.0 0.0 0.0 34.71893929493243" Properties=species:S:1:pos:R:3:initial_magmoms:R:1 pbc="T T T"
Si       0.47651508      -0.96656715      -2.05213349       0.00000000
Si      -1.36769211      -1.43220051       1.21592737       0.00000000
Si      -1.68493986       1.61748297       0.58063987       0.00000000
Si       2.10794229       0.16099407       1.17016778       0.00000000
Si      -0.04776228      -0.73735056       3.20174765       0.00000000
Si      -1.59513309      -1.07865864      -3.24035513       0.00000000
Si      -1.67821209       1.24853076       3.19233881       0.00000000
Si       1.09695231      -3.21603696      -1.80847584       0.00000000
Si      -3.81734973       0.52813809      -0.15179129       0.00000000
Si      -2.37102579      -3.04450326      -0.26424599       0.00000000
