10
Lattice="16.28999089631971 0.0 0.0 0.0 16.28999089631971 0.0 0.0 0.0 34.71893929493243" Properties=species:S:1:pos:R:3:initial_magmoms:R:1 pbc="T T T"
Si       1.14165207       0.58940478      -1.90582780       0.00000000
Si      -2.22433434       0.72246150       0.17265738       0.00000000
Si       0.14252121      -2.34593919       0.14102841       0.00000000
Si       0.78296256       0.97489134       1.99949955       0.00000000
Si      -2.57812056      -0.60092181       2.07188858       0.00000000
Si       3.20327279      -0.42744960      -1.69522260       0.00000000
Si       2.20951044       2.61780530      -1.35928195       0.00000000
Si       1.10537424      -2.71254564       2.30433201       0.00000000
Si       0.74036421      -0.73106262       3.61837516       0.00000000
Si      -0.76633047       2.73054839       2.52153381       0.00000000
