10
Lattice="16.28999089631971 0.0 0.0 0.0 16.28999089631971 0.0 0.0 0.0 34.71893929493243" Properties=species:S:1:pos:R:3:initial_magmoms:R:1 pbc="T T T"
Si       2.25892615       0.36183348       0.35864684       0.00000000
Si       0.30787774      -2.33261397       0.05777235       0.00000000
Si      -1.64030430       0.74490912       1.52902294       0.00000000
Si      -0.53856695       0.97410942      -2.11223201       0.00000000
Si       2.82557381       0.27772821      -1.95037222       0.00000000
Si       1.00435180      -0.45638064      -3.27253961       0.00000000
Si      -1.45609698      -2.97834957      -1.40802737       0.00000000
Si      -2.85565233       0.62177301      -2.15570015       0.00000000
Si      -0.31453384       3.30289524      -1.56148517       0.00000000
Si      -3.50093181       1.09061550       0.06804916       0.00000000
