10
Lattice="16.28999089631971 0.0 0.0 0.0 16.28999089631971 0.0 0.0 0.0 34.71893929493243" Properties=species:S:1:pos:R:3:initial_magmoms:R:1 pbc="T T T"
Si      -2.16880173       0.80809803       0.16390820       0.00000000
Si       1.07727399      -1.18179063      -1.78931097       0.00000000
Si       1.03544127      -1.14694632       1.84517378       0.00000000
Si       1.01372670       1.98738000      -0.96341638       0.00000000
Si       1.15634565       0.89635725      -3.09495214       0.00000000
Si       3.21521336      -0.25534575       1.16124501       0.00000000
Si       3.08067425       2.02129578       0.18633665       0.00000000
Si       3.24302039      -1.60795332      -0.79742504       0.00000000
Si      -2.11250349       2.80989468       1.39636180       0.00000000
Si       0.11451870      -3.32400708       1.86079731       0.00000000
