10
Lattice="16.28999089631971 0.0 0.0 0.0 16.28999089631971 0.0 0.0 0.0 34.71893929493243" Properties=species:S:1:pos:R:3:initial_magmoms:R:1 pbc="T T T"
Si      -1.80134887      -0.70058403       1.37895861       0.00000000
Si       0.94206862       1.92718845       1.28654022       0.00000000
Si       1.97453371      -1.54758258       0.29131710       0.00000000
Si      -1.29002206      -0.75649131      -2.06744455       0.00000000
Si      -0.34651404      -2.02346235       2.78501048       0.00000000
Si       2.39587456       0.71959446       2.78446886       0.00000000
Si      -0.71866660       0.99758331      -3.56414414       0.00000000
Si       1.07811781      -3.40965175       1.45685407       0.00000000
Si       2.14937428       3.37367529      -0.32430979       0.00000000
Si       0.32160207       3.18598191      -2.46490719       0.00000000
