10
Lattice="16.28999089631971 0.0 0.0 0.0 16.28999089631971 0.0 0.0 0.0 34.71893929493243" Properties=species:S:1:pos:R:3:initial_magmoms:R:1 pbc="T T T"
Si      -1.35743593      -1.35630540       1.35681691       0.00000000
Si      -1.35735285       1.35708732      -1.35771960       0.00000000
Si       1.35790182       1.35930276       1.35646972       0.00000000
Si       1.35765747      -1.35826020      -1.35806679       0.00000000
Si      -2.71410752       2.71391400      -0.00062494       0.00000000
Si      -2.71509407      -0.00118917       2.71300887       0.00000000
Si      -0.00071676       2.71440270       2.71432819       0.00000000
Si       2.71404432      -0.00058644      -2.71547392       0.00000000
Si       2.71513575       2.71497285      -0.00045135       0.00000000
Si      -0.00014661       2.71516833      -2.71509201       0.00000000
