10
Lattice="16.28999089631971 0.0 0.0 0.0 16.28999089631971 0.0 0.0 0.0 34.71893929493243" Properties=species:S:1:pos:R:3:initial_magmoms:R:1 pbc="T T T"
Si       2.29122108       0.54890784       0.52508953       0.00000000
Si      -0.61219449      -2.39024799       0.28479962       0.00000000
Si       0.79190577       2.40241662      -0.03353851       0.00000000
Si      -2.80109971      -0.23436423       0.64601566       0.00000000
Si       1.58498442      -0.85058235       2.64874408       0.00000000
Si       0.20720880      -2.94593247      -1.93047826       0.00000000
Si      -2.94688055       0.36769788      -1.91971538       0.00000000
Si       3.21374007      -0.27463311      -1.69650720       0.00000000
Si      -0.22597488       3.05592255      -2.04845328       0.00000000
Si      -1.23975045       1.24734159      -3.35114333       0.00000000
