10
Lattice="16.28999089631971 0.0 0.0 0.0 16.28999089631971 0.0 0.0 0.0 34.71893929493243" Properties=species:S:1:pos:R:3:initial_magmoms:R:1 pbc="T T T"
Si      -0.22573053       0.65938662      -2.21798596       0.00000000
Si       2.04143022       1.03338873       0.66632626       0.00000000
Si      -2.04391119       0.53911755       1.16416140       0.00000000
Si       0.72967797      -2.33626293      -0.10728158       0.00000000
Si       2.45441430      -0.56557251       2.35623685       0.00000000
Si      -1.08998019       0.65549331       3.32805522       0.00000000
Si      -2.20893214      -0.37841670      -2.85389840       0.00000000
Si       3.30475230       1.00696635      -1.46357770       0.00000000
Si       1.86113250       0.46954296      -3.31312607       0.00000000
Si       2.78835930      -2.43167346       1.02674377       0.00000000
