10
Lattice="16.28999089631971 0.0 0.0 0.0 16.28999089631971 0.0 0.0 0.0 34.71893929493243" Properties=species:S:1:pos:R:3:initial_magmoms:R:1 pbc="T T T"
Si      -1.31711166       1.36047564      -1.42368562       0.00000000
Si       0.24513192       0.66391524       2.26270398       0.00000000
Si       2.18639493       0.03461625      -1.00768306       0.00000000
Si      -0.96446574      -2.20610583       0.15210376       0.00000000
Si      -1.91839674      -2.32248159      -2.01179006       0.00000000
Si       2.21537484      -0.58168332       2.82789390       0.00000000
Si      -2.86113976      -0.08868276      -2.37352689       0.00000000
Si       3.63206727      -0.45986670       0.85738469       0.00000000
Si       1.15978284       2.90942658       2.08542897       0.00000000
Si       2.16694467      -1.82821041      -2.50962521       0.00000000
