10
Lattice="16.28999089631971 0.0 0.0 0.0 16.28999089631971 0.0 0.0 0.0 34.71893929493243" Properties=species:S:1:pos:R:3:initial_magmoms:R:1 pbc="T T T"
Si       1.35723393       1.35567009      -1.35692106       0.00000000
Si      -1.35861858       1.35509994       1.35785847       0.00000000
Si      -1.35790182      -1.35930276      -1.35646972       0.00000000
Si       1.35783666      -1.36000323       1.36317048       0.00000000
Si      -2.71472850       2.71116099      -0.00020831       0.00000000
Si      -0.00032580       2.71295289      -2.71394628       0.00000000
Si      -2.71525467      -0.00221544      -2.71418932       0.00000000
Si       2.71572219       2.71383255      -0.00017359       0.00000000
Si       2.71554300      -0.00244350      -2.71450179       0.00000000
Si      -2.71533775      -2.71560816       0.00034719       0.00000000
