10
Lattice="16.28999089631971 0.0 0.0 0.0 16.28999089631971 0.0 0.0 0.0 34.71893929493243" Properties=species:S:1:pos:R:3:initial_magmoms:R:1 pbc="T T T"
Si       1.35949824       1.35211887      -1.37292650       0.00000000
Si      -1.35487907      -1.36347300      -1.37424582       0.00000000
Si       1.28425473      -1.32331815       1.50267125       0.00000000
Si      -1.24651161       1.41563358       1.47097284       0.00000000
Si      -2.10922010      -0.33490611       2.92979405       0.00000000
Si       2.29803030       0.48526281       2.80536130       0.00000000
Si      -0.42287537      -2.20296186       2.93409920       0.00000000
Si       0.58337748       2.43988362       2.90052597       0.00000000
Si      -2.70061226      -2.72284092      -0.02465046       0.00000000
Si      -2.71887335       2.71300176       0.02090081       0.00000000
