10
Lattice="16.28999089631971 0.0 0.0 0.0 16.28999089631971 0.0 0.0 0.0 34.71893929493243" Properties=species:S:1:pos:R:3:initial_magmoms:R:1 pbc="T T T"
Si       1.64483551      -1.51169571       0.75572757       0.00000000
Si      -1.16225240       0.46823976       2.01047074       0.00000000
Si       1.46196397       1.83675844      -0.35979257       0.00000000
Si      -1.02711545      -1.43379693      -1.61248732       0.00000000
Si      -2.02087780       1.61145797      -1.27654667       0.00000000
Si      -3.08873617      -0.41694255      -1.82309252       0.00000000
Si       2.59060033      -2.31982632      -1.26252021       0.00000000
Si      -1.23643055       2.82571946       2.13299395       0.00000000
Si       0.22115467       3.71979611       0.47054605       0.00000000
Si       0.63474148      -2.77809660       2.47709355       0.00000000
