10
Lattice="16.28999089631971 0.0 0.0 0.0 16.28999089631971 0.0 0.0 0.0 34.48637585096406" Properties=species:S:1:pos:R:3:initial_magmoms:R:1 pbc="T T T"
Si      -0.72664314      -1.82934908       1.39594841       0.00000000
Si      -1.03624274      -0.26409348      -2.21732023       0.00000000
Si       2.01495897       0.96575265       1.16859340       0.00000000
Si      -1.70780613       1.95725979      -0.00278895       0.00000000
Si      -2.06170217      -0.46959183       2.72206410       0.00000000
Si       0.66409443       2.27721168       2.68289446       0.00000000
Si      -3.29690771       0.83557926       1.25627506       0.00000000
Si      -3.10984964      -1.33874478      -1.47013799       0.00000000
Si      -2.34527849      -3.00903178       0.16132891       0.00000000
Si      -0.63191354       1.79753634      -3.39130609       0.00000000
