10
Lattice="16.28999089631971 0.0 0.0 0.0 16.28999089631971 0.0 0.0 0.0 34.48637585096406" Properties=species:S:1:pos:R:3:initial_magmoms:R:1 pbc="T T T"
Si      -1.50889383      -1.04539446      -1.47081027       0.00000000
Si       2.23617717      -0.76320279      -0.28037439       0.00000000
Si       0.71806320       2.08049364      -1.19253954       0.00000000
Si      -0.84926286       0.08289981       2.46308731       0.00000000
Si      -2.36757720       1.72905318       1.76215133       0.00000000
Si       2.29583115       2.83683217       0.44687471       0.00000000
Si      -0.68916474      -0.51039828      -3.59293059       0.00000000
Si       2.56919364      -1.71704745      -2.37280193       0.00000000
Si      -2.03648946      -3.23902215      -0.74359565       0.00000000
Si      -3.53216789       0.14395473      -1.81270839       0.00000000
