10
Lattice="16.28999089631971 0.0 0.0 0.0 16.28999089631971 0.0 0.0 0.0 34.48637585096406" Properties=species:S:1:pos:R:3:initial_magmoms:R:1 pbc="T T T"
Si       1.35826020       1.35461776      -1.39445739       0.00000000
Si      -1.35791811      -1.36461659      -1.39459533       0.00000000
Si       1.46004012      -1.26717238       1.50153764       0.00000000
Si      -1.41827256       1.37542009       1.54881849       0.00000000
Si       2.70510111      -2.70560677      -0.02738220       0.00000000
Si       2.69905752       2.71260103      -0.02124362       0.00000000
Si      -2.72626182      -2.68974031      -0.03072738       0.00000000
Si      -2.71472850       2.71092316      -0.00610409       0.00000000
Si       0.00161271       2.70865885      -2.75442838       0.00000000
Si      -2.71212210      -0.00554023      -2.75266957       0.00000000
