10
Lattice="16.28999089631971 0.0 0.0 0.0 16.28999089631971 0.0 0.0 0.0 34.48637585096406" Properties=species:S:1:pos:R:3:initial_magmoms:R:1 pbc="T T T"
Si      -1.35086454       1.31145903       1.51430106       0.00000000
Si       1.97625393       0.66554424      -1.26634530       0.00000000
Si       1.33232652      -1.42570080       1.51179735       0.00000000
Si      -2.01495897      -0.96575265      -1.16859340       0.00000000
Si       2.77247655       2.62120761       0.08251215       0.00000000
Si      -2.71791157       2.72432331       0.12039201       0.00000000
Si       2.73834900      -2.76191248       0.11178075       0.00000000
Si      -2.74160211      -2.79510173       0.22735501       0.00000000
Si      -0.00804726       2.64860739       2.89748829       0.00000000
Si       2.70674640      -0.06600708       2.89086690       0.00000000
