10
Lattice="16.28999089631971 0.0 0.0 0.0 16.28999089631971 0.0 0.0 0.0 34.48637585096406" Properties=species:S:1:pos:R:3:initial_magmoms:R:1 pbc="T T T"
Si       0.91287531       1.88263530      -1.05060320       0.00000000
Si       1.30906440      -1.32410007       1.44082090       0.00000000
Si      -1.42224732       1.36588392       1.44005530       0.00000000
Si      -0.79622262      -1.95566337      -1.34885745       0.00000000
Si       2.68762194      -2.67388947      -0.00787324       0.00000000
Si      -2.77247655      -2.62120761      -0.08251215       0.00000000
Si       2.64935673       0.02702511       2.81573484       0.00000000
Si      -0.06573015      -2.68721469       2.80835475       0.00000000
Si      -2.64471408       2.86619292       0.07396297       0.00000000
Si      -0.06527403       2.74323600       2.80849270       0.00000000
