10
Lattice="16.28999089631971 0.0 0.0 0.0 16.28999089631971 0.0 0.0 0.0 34.48637585096406" Properties=species:S:1:pos:R:3:initial_magmoms:R:1 pbc="T T T"
Si       1.59312942       0.87856857      -1.61458405       0.00000000
Si       1.39562946       0.19919412       2.14605388       0.00000000
Si      -1.04695830      -1.83771448      -1.66786553       0.00000000
Si      -2.09658816       1.28691000       1.34841805       0.00000000
Si       2.03773239      -2.00069612       1.66176144       0.00000000
Si       2.86790337       2.38430214      -0.18777842       0.00000000
Si       0.29667348       2.21407164      -3.16950663       0.00000000
Si      -2.90369576      -0.94965813       2.39956337       0.00000000
Si      -3.01054676       2.48749929      -0.49584539       0.00000000
Si      -2.42071843      -0.50752961      -3.17095506       0.00000000
