10
Lattice="16.28999089631971 0.0 0.0 0.0 16.28999089631971 0.0 0.0 0.0 34.48637585096406" Properties=species:S:1:pos:R:3:initial_magmoms:R:1 pbc="T T T"
Si       1.35783666       1.35666378      -1.35710862       0.00000000
Si      -1.35685926      -1.35871632      -1.35728105       0.00000000
Si      -1.35927018       1.35917244       1.35524636       0.00000000
Si       1.35786924      -1.35972630       1.36228158       0.00000000
Si      -2.69980197      -0.00333945       2.72270090       0.00000000
Si      -0.02572191       2.71653669       2.70966504       0.00000000
Si      -2.71464216       2.71169856      -0.00062076       0.00000000
Si       0.00026064       2.71438641      -2.71480351       0.00000000
Si       2.71578735       2.71391400       0.00027589       0.00000000
Si      -2.71472687      -0.00099369      -2.71497594       0.00000000
