10
Lattice="16.28999089631971 0.0 0.0 0.0 16.28999089631971 0.0 0.0 0.0 34.48637585096406" Properties=species:S:1:pos:R:3:initial_magmoms:R:1 pbc="T T T"
Si       1.35018036       1.36461330      -1.37849019       0.00000000
Si      -1.36612827      -1.35185823      -1.37697278       0.00000000
Si      -1.48864536       1.31742117       1.30537903       0.00000000
Si       1.32828660      -1.38489435       1.51829803       0.00000000
Si       2.68921836      -2.70461241      -0.00634550       0.00000000
Si       2.69667918       2.71855665       0.00527642       0.00000000
Si      -2.72456766      -2.70629028       0.00879403       0.00000000
Si       2.70560610       0.00609246      -2.73884053       0.00000000
Si      -0.00822645      -2.70855459      -2.73953026       0.00000000
Si      -0.00821016       2.72178207      -2.73897847       0.00000000
