10
Lattice="16.28999089631971 0.0 0.0 0.0 16.28999089631971 0.0 0.0 0.0 34.48637585096406" Properties=species:S:1:pos:R:3:initial_magmoms:R:1 pbc="T T T"
Si       0.73713879      -1.98363330      -0.97641331       0.00000000
Si      -2.17860831       0.83662182      -0.02658901       0.00000000
Si       1.33894026       0.17857098       1.91196023       0.00000000
Si       1.04949954       1.56105441      -1.46232661       0.00000000
Si      -1.65516174       2.80350900       1.34759038       0.00000000
Si       2.03784642       2.45517993       1.85974783       0.00000000
Si       3.17368296      -1.27961208       1.44556622       0.00000000
Si       3.33238014       0.99072522      -1.32893324       0.00000000
Si       3.37035213      -1.38482919      -1.00827873       0.00000000
Si       0.00951336      -3.91536666       0.12187492       0.00000000
