10
Lattice="16.28999089631971 0.0 0.0 0.0 16.28999089631971 0.0 0.0 0.0 34.48637585096406" Properties=species:S:1:pos:R:3:initial_magmoms:R:1 pbc="T T T"
Si       0.47174211       1.24916607       1.95710292       0.00000000
Si      -0.48678918       1.53984483      -1.74190782       0.00000000
Si       1.97032437      -1.33973847      -0.53909133       0.00000000
Si      -1.90958615      -1.51260795       0.51729593       0.00000000
Si      -0.17783793      -0.21317094      -3.54775341       0.00000000
Si       0.74231901      -3.32551733      -1.08011390       0.00000000
Si      -0.98494553      -2.44973907      -2.49660809       0.00000000
Si      -1.61732007       2.29330620       2.52254186       0.00000000
Si      -2.73026006       2.44252260      -1.16222600       0.00000000
Si      -1.11878743      -3.01220508       2.17574667       0.00000000
