10
Lattice="16.28999089631971 0.0 0.0 0.0 16.28999089631971 0.0 0.0 0.0 34.48637585096406" Properties=species:S:1:pos:R:3:initial_magmoms:R:1 pbc="T T T"
Si       1.46492712      -1.48891791      -1.15515629       0.00000000
Si       1.22800536       1.98577886       0.54102257       0.00000000
Si      -1.72726454       0.87577826      -1.41649419       0.00000000
Si      -0.78024213      -1.31332800       1.90033832       0.00000000
Si      -0.74231901       3.32551733       1.08011390       0.00000000
Si      -3.57944147       0.22856027       0.03810747       0.00000000
Si      -2.65190516       1.81290938       1.59740982       0.00000000
Si       2.23287030      -2.78778477       0.74187133       0.00000000
Si       2.57206068       2.02463051      -1.67000368       0.00000000
Si      -1.86110644       0.31331225       3.25586056       0.00000000
