10
Lattice="16.28999089631971 0.0 0.0 0.0 16.28999089631971 0.0 0.0 0.0 34.48637585096406" Properties=species:S:1:pos:R:3:initial_magmoms:R:1 pbc="T T T"
Si       0.53400249       1.30660461      -1.92599619       0.00000000
Si      -1.59625710      -1.67927094      -0.61447859       0.00000000
Si      -1.23698115       1.38557853       1.54447321       0.00000000
Si       2.00808459      -1.01931417       0.93058089       0.00000000
Si       1.48463802      -2.98620135      -0.44359850       0.00000000
Si      -0.63806301      -3.40034202       0.67169152       0.00000000
Si       0.73883295       3.47498280      -1.07300970       0.00000000
Si      -0.54144702       3.59800488       0.92844273       0.00000000
Si      -3.71096626      -0.82412739      -0.09942428       0.00000000
Si      -1.23689970       1.15062786      -3.45150188       0.00000000
