10
Lattice="16.28999089631971 0.0 0.0 0.0 16.28999089631971 0.0 0.0 0.0 34.48637585096406" Properties=species:S:1:pos:R:3:initial_magmoms:R:1 pbc="T T T"
Si      -0.02606400      -0.63902412       2.25085804       0.00000000
Si       1.13329530       2.05719894      -0.25547522       0.00000000
Si      -0.44808903      -1.62769680      -1.70607645       0.00000000
Si       2.41745229       0.03653847       0.09635499       0.00000000
Si       0.10878462      -2.92068297       1.76118571       0.00000000
Si       1.40509395       1.04153373       3.04135519       0.00000000
Si       0.80027883       3.01104360       1.83695232       0.00000000
Si       2.27669040      -2.78026317       0.43718403       0.00000000
Si      -3.47238780       0.53522424       1.37373106       0.00000000
Si      -2.57162085      -2.53817748      -1.17995201       0.00000000
