10
Lattice="16.28999089631971 0.0 0.0 0.0 16.28999089631971 0.0 0.0 0.0 34.48637585096406" Properties=species:S:1:pos:R:3:initial_magmoms:R:1 pbc="T T T"
Si       0.80366715      -2.13156346       0.56950833       0.00000000
Si      -1.06131631      -0.74821436      -2.00741857       0.00000000
Si      -2.15435969       0.33626144       0.98569015       0.00000000
Si       1.96436223       1.16962852       0.71345454       0.00000000
Si      -2.89371392      -1.29147187      -0.58578591       0.00000000
Si       0.54418374      -1.97325724       2.96707149       0.00000000
Si       2.78479179      -2.66739043      -0.66731175       0.00000000
Si       1.50096060       3.27224398       1.74318381       0.00000000
Si      -2.44324655      -3.09213589       0.88902478       0.00000000
Si      -0.57618870      -3.99886987      -0.12663404       0.00000000
