10
Lattice="16.28999089631971 0.0 0.0 0.0 16.28999089631971 0.0 0.0 0.0 34.48637585096406" Properties=species:S:1:pos:R:3:initial_magmoms:R:1 pbc="T T T"
Si       2.30272182      -0.30141387       0.36521092       0.00000000
Si      -0.37998054      -2.25390069      -0.68158911       0.00000000
Si      -0.25135470       2.09397917      -1.15605294       0.00000000
Si      -1.26693846       0.12507462       2.13508721       0.00000000
Si      -3.16335510      -0.14444343      -0.63789485       0.00000000
Si       1.82239488      -0.76092219       2.67535107       0.00000000
Si      -1.02563469       3.10800887       0.86933305       0.00000000
Si      -2.85285141       1.56625974       1.13160208       0.00000000
Si      -2.67416640      -2.46581730      -0.26530384       0.00000000
Si       0.58419198      -3.67246647       0.95482482       0.00000000
