10
Lattice="16.28999089631971 0.0 0.0 0.0 16.28999089631971 0.0 0.0 0.0 34.48637585096406" Properties=species:S:1:pos:R:3:initial_magmoms:R:1 pbc="T T T"
Si       1.86412986      -0.35305317       1.28654946       0.00000000
Si      -0.54400455       2.23964694       0.38800643       0.00000000
Si      -0.01329264      -0.23379408      -2.35697267       0.00000000
Si      -1.50959430      -1.52129215       1.07476850       0.00000000
Si      -2.49834843       2.33561133      -0.93075332       0.00000000
Si      -2.14477398      -1.08843264      -2.61224097       0.00000000
Si      -0.83118096       2.29016223       2.67317843       0.00000000
Si       1.43702235       1.14795630       3.16212654       0.00000000
Si       1.98878094      -2.76451400       1.38259407       0.00000000
Si      -3.51429057       0.20585673      -1.18495254       0.00000000
