10
Lattice="16.28999089631971 0.0 0.0 0.0 16.28999089631971 0.0 0.0 0.0 34.48637585096406" Properties=species:S:1:pos:R:3:initial_magmoms:R:1 pbc="T T T"
Si      -1.60624287      -1.14243399      -1.31918880       0.00000000
Si       1.32144480      -1.36684503       1.45202553       0.00000000
Si      -1.37855754       1.34978940       1.44869414       0.00000000
Si       1.44006858       1.29313278      -1.57611244       0.00000000
Si      -2.68762194       2.67388947       0.00787324       0.00000000
Si       2.71365336       2.65171878      -0.06497237       0.00000000
Si      -3.48384456       0.71822610      -1.34098420       0.00000000
Si       2.75257017      -2.67365978       0.10736305       0.00000000
Si      -2.72174949      -2.70923063       0.03714185       0.00000000
Si       2.67599088      -0.01104462       2.81984907       0.00000000
