10
Lattice="16.28999089631971 0.0 0.0 0.0 16.28999089631971 0.0 0.0 0.0 34.48637585096406" Properties=species:S:1:pos:R:3:initial_magmoms:R:1 pbc="T T T"
Si      -1.34029233      -1.35112518      -1.37491395       0.00000000
Si      -1.35454608       1.36058967       1.35497046       0.00000000
Si       1.35972630      -1.35446463       1.35655684       0.00000000
Si       1.38375405       1.32506118      -1.36687172       0.00000000
Si       0.11282454       2.79160101      -2.62782882       0.00000000
Si       0.00144981      -2.71339272       2.71280330       0.00000000
Si       2.71425609      -2.71195920      -0.00375902       0.00000000
Si      -2.71378368       0.00148239       2.71290676       0.00000000
Si       2.71585251       0.00131949       2.71283779       0.00000000
Si      -2.71508688      -2.71423980      -0.00738009       0.00000000
