10
Lattice="16.28999089631971 0.0 0.0 0.0 16.28999089631971 0.0 0.0 0.0 34.48637585096406" Properties=species:S:1:pos:R:3:initial_magmoms:R:1 pbc="T T T"
Si      -0.32702175      -1.02144816       2.19564532       0.00000000
Si      -0.66986109      -1.83560607      -1.49564047       0.00000000
Si       0.13579344       1.47041685       2.06470048       0.00000000
Si      -1.74669525       1.86675255      -0.07911179       0.00000000
Si       1.97654715       0.73676412      -1.53523085       0.00000000
Si      -2.02285962      -0.56265660      -2.93910302       0.00000000
Si       0.70517781       2.16277443      -2.93906854       0.00000000
Si      -3.38379138       0.75706146      -1.41445950       0.00000000
Si      -1.65183858      -3.39519112      -0.07669774       0.00000000
Si      -0.67106655       3.47301171      -1.45929181       0.00000000
