10
Lattice="16.28999089631971 0.0 0.0 0.0 16.28999089631971 0.0 0.0 0.0 34.48637585096406" Properties=species:S:1:pos:R:3:initial_magmoms:R:1 pbc="T T T"
Si       0.28717641      -0.05051529      -2.28517200       0.00000000
Si      -0.58925817       2.26261584       0.57775058       0.00000000
Si      -2.16868770      -1.14701148       0.06338599       0.00000000
Si       2.26820331      -1.14220593       0.48894811       0.00000000
Si      -1.65317436       0.07651413       2.95217337       0.00000000
Si       1.39053069       2.57344533       1.90409733       0.00000000
Si       0.83118096      -2.29016223      -2.67317843       0.00000000
Si      -2.80793988       1.71478314       1.64679434       0.00000000
Si       2.18652525       1.26237726      -2.75777356       0.00000000
Si       1.68777432      -2.17144071       2.53564669       0.00000000
