10
Lattice="16.28999089631971 0.0 0.0 0.0 16.28999089631971 0.0 0.0 0.0 34.48637585096406" Properties=species:S:1:pos:R:3:initial_magmoms:R:1 pbc="T T T"
Si      -0.97052562       1.96393869       0.84777905       0.00000000
Si      -1.88765262      -1.19650050      -1.01424488       0.00000000
Si       0.70367913      -1.22772843       2.09015144       0.00000000
Si       1.15605243       1.30043070      -2.06232091       0.00000000
Si       2.26499418      -2.33924400       0.73011147       0.00000000
Si      -0.82373643       0.98960121      -3.38866767       0.00000000
Si       1.31973435       3.04908075       1.49988230       0.00000000
Si       1.70144163       3.30884109      -0.86885024       0.00000000
Si      -3.04241814       0.44176851      -2.31962391       0.00000000
Si       1.45329606      -3.44445534      -1.43077156       0.00000000
