10
Lattice="16.28999089631971 0.0 0.0 0.0 16.28999089631971 0.0 0.0 0.0 34.48637585096406" Properties=species:S:1:pos:R:3:initial_magmoms:R:1 pbc="T T T"
Si       1.34281728       1.33714836       1.38318723       0.00000000
Si      -1.37321605      -1.37702628       1.37666930       0.00000000
Si      -1.36704703       1.41286428      -1.39390905       0.00000000
Si       1.35086454      -1.31145903      -1.51430106       0.00000000
Si      -0.66409443      -2.27721168      -2.68289446       0.00000000
Si      -2.37190056      -0.31995189      -2.68568341       0.00000000
Si       2.70109377       2.67563250       0.00826639       0.00000000
Si       2.68319106      -2.73715983      -0.00250371       0.00000000
Si      -0.01150074       2.69490357       2.73964061       0.00000000
Si      -2.74768496       2.68941384       0.01802259       0.00000000
