10
Lattice="16.28999089631971 0.0 0.0 0.0 16.28999089631971 0.0 0.0 0.0 34.48637585096406" Properties=species:S:1:pos:R:3:initial_magmoms:R:1 pbc="T T T"
Si      -1.34649882      -1.35394335      -1.38376660       0.00000000
Si       1.36935369       1.36102950      -1.38376660       0.00000000
Si       1.34433225      -1.38750075       1.46818930       0.00000000
Si      -1.45974690       1.36117611       1.39642311       0.00000000
Si      -2.69667918      -2.71855665      -0.00527642       0.00000000
Si       2.72057661      -2.69773803      -0.01158743       0.00000000
Si      -2.69241120       2.72937321      -0.04300453       0.00000000
Si       2.72673423       2.70979263      -0.01007003       0.00000000
Si      -2.70488934       0.00322542      -2.74425489       0.00000000
Si       0.00892692      -2.71246419      -2.74411695       0.00000000
