10
Lattice="16.28999089631971 0.0 0.0 0.0 16.28999089631971 0.0 0.0 0.0 34.48637585096406" Properties=species:S:1:pos:R:3:initial_magmoms:R:1 pbc="T T T"
Si       1.35580041      -1.35959598      -1.36093661       0.00000000
Si      -1.35933534       1.35892809      -1.36059175       0.00000000
Si       1.35738054       1.34876313       1.37369658       0.00000000
Si      -1.36935369      -1.36102950       1.38376660       0.00000000
Si      -0.11631060       2.65698045       2.71525183       0.00000000
Si       2.71510317      -2.71446786      -0.00648344       0.00000000
Si       2.71606428       2.71353933      -0.00196572       0.00000000
Si      -2.71663443       2.71415835      -0.00462118       0.00000000
Si      -2.71585251      -2.71497285       0.00000000       0.00000000
Si       2.71311579      -0.00052128      -2.71783831       0.00000000
