10
Lattice="16.28999089631971 0.0 0.0 0.0 16.28999089631971 0.0 0.0 0.0 34.48637585096406" Properties=species:S:1:pos:R:3:initial_magmoms:R:1 pbc="T T T"
Si      -1.38063794       1.27654956       1.41193164       0.00000000
Si      -1.00485354      -1.73281617      -1.29177435       0.00000000
Si       1.36704703      -1.41286428       1.39390905       0.00000000
Si       0.86968075       1.99669788      -1.12141722       0.00000000
Si      -2.78114350       2.52517806      -0.04704289       0.00000000
Si      -1.00056927       3.47035644      -1.25341458       0.00000000
Si      -0.00540339       2.64072303       2.76730215       0.00000000
Si       2.71791157      -2.72432331      -0.12039201       0.00000000
Si      -2.59395511      -2.85449670      -0.03271035       0.00000000
Si       2.70986431      -0.07571592       2.77709629       0.00000000
