10
Lattice="16.28999089631971 0.0 0.0 0.0 16.28999089631971 0.0 0.0 0.0 34.48637585096406" Properties=species:S:1:pos:R:3:initial_magmoms:R:1 pbc="T T T"
Si       1.85248251      -0.91575864       0.99710514       0.00000000
Si      -0.49552551      -1.16988264      -1.93434190       0.00000000
Si       0.62982027       2.08010268      -0.87326450       0.00000000
Si      -2.12964057       0.22328703       1.00076070       0.00000000
Si      -1.59153300       2.46255930      -1.56640655       0.00000000
Si      -2.13452757       0.39317544      -2.74515154       0.00000000
Si      -1.44104598      -0.19991088       3.21085582       0.00000000
Si      -2.64130947       2.52286488       0.59271767       0.00000000
Si       1.43454627      -1.31489622      -3.28607065       0.00000000
Si       1.60045992       3.38577876       0.81918983       0.00000000
