10
Lattice="16.28999089631971 0.0 0.0 0.0 16.28999089631971 0.0 0.0 0.0 34.48637585096406" Properties=species:S:1:pos:R:3:initial_magmoms:R:1 pbc="T T T"
Si      -1.63971882       1.50073254      -0.64762001       0.00000000
Si      -0.54538920      -2.00841039      -1.19347068       0.00000000
Si      -0.38170728      -0.25976034       2.36873254       0.00000000
Si       1.96473690       1.52314758       0.44725406       0.00000000
Si       0.41120847       2.08643949       2.30044947       0.00000000
Si      -2.67196725      -1.34490240       1.71662929       0.00000000
Si      -1.30671864       1.17165825      -2.97545168       0.00000000
Si      -3.48809625       0.34209000       0.25030226       0.00000000
Si       1.42166088      -1.97965854      -2.55444177       0.00000000
Si      -0.96798438       3.50676459       0.57206032       0.00000000
