10
Lattice="16.28999089631971 0.0 0.0 0.0 16.28999089631971 0.0 0.0 0.0 34.48637585096406" Properties=species:S:1:pos:R:3:initial_magmoms:R:1 pbc="T T T"
Si       0.97052562      -1.96393869      -0.84777905       0.00000000
Si      -1.54061046       0.07172487       1.77575487       0.00000000
Si      -0.81612900       1.68699240      -1.46632703       0.00000000
Si       2.29025997       1.08514206       0.65210325       0.00000000
Si       0.30869550       1.00771569       3.01426409       0.00000000
Si       2.67196725       1.34490240      -1.71662929       0.00000000
Si       2.12657805      -0.66350799      -2.91009997       0.00000000
Si      -2.94348897       2.29962672      -0.56323181       0.00000000
Si      -0.91712700      -3.16043919      -1.86202393       0.00000000
Si       1.67420475      -3.19166712       1.24237238       0.00000000
