10
Lattice="16.28999089631971 0.0 0.0 0.0 16.28999089631971 0.0 0.0 0.0 34.48637585096406" Properties=species:S:1:pos:R:3:initial_magmoms:R:1 pbc="T T T"
Si      -1.34876313       1.34838736       1.35645338       0.00000000
Si       1.36674729       1.33831473      -1.35407037       0.00000000
Si       1.36534635      -1.36635633       1.35162528       0.00000000
Si      -1.33009479      -1.36145304      -1.39663693       0.00000000
Si       0.62363007      -2.17890153      -2.75855985       0.00000000
Si       2.42224155      -0.30841857      -2.63211203       0.00000000
Si      -2.70767493       2.70484929      -0.00458669       0.00000000
Si      -2.70650205      -0.00720018       2.71163076       0.00000000
Si       0.00768888       2.70630235       2.71201011       0.00000000
Si       2.72627811       2.70778963      -0.00206918       0.00000000
