10
Lattice="16.28999089631971 0.0 0.0 0.0 16.28999089631971 0.0 0.0 0.0 34.48637585096406" Properties=species:S:1:pos:R:3:initial_magmoms:R:1 pbc="T T T"
Si      -1.42469082      -1.24949187      -1.35376344       0.00000000
Si      -0.11039733       1.93782975       1.30134412       0.00000000
Si       1.39751910       1.39514076      -1.31896667       0.00000000
Si      -0.03091842      -1.58447943       1.78146371       0.00000000
Si      -2.31417369       2.76678549       0.16553470       0.00000000
Si       2.62933632       2.57953683       0.29868667       0.00000000
Si       0.04900032      -2.55770919      -2.69531870       0.00000000
Si      -2.82173751      -2.54080017       0.09707920       0.00000000
Si      -2.67915114       0.18111222      -2.70300916       0.00000000
Si       2.77654905       0.14431311      -2.70666472       0.00000000
