10
Lattice="16.28999089631971 0.0 0.0 0.0 16.28999089631971 0.0 0.0 0.0 34.48637585096406" Properties=species:S:1:pos:R:3:initial_magmoms:R:1 pbc="T T T"
Si       0.36914769       2.25903923      -0.37203923       0.00000000
Si       1.08059715      -0.18186156       2.06135530       0.00000000
Si       0.47843730      -1.69580529      -1.58078738       0.00000000
Si      -2.29742757       0.08677683      -0.69645275       0.00000000
Si      -1.59570324      -1.23720921      -2.63289832       0.00000000
Si      -0.59373792       2.62867562      -2.43580857       0.00000000
Si       0.33858765      -3.65832675      -0.33000031       0.00000000
Si      -1.00036890       3.55332860       1.05524920       0.00000000
Si       3.46214628      -0.42663510       1.68893671       0.00000000
Si       1.00432737       1.82617972       3.31497024       0.00000000
