10
Lattice="16.28999089631971 0.0 0.0 0.0 16.28999089631971 0.0 0.0 0.0 34.48637585096406" Properties=species:S:1:pos:R:3:initial_magmoms:R:1 pbc="T T T"
Si      -0.13984965      -1.96252146       1.25078706       0.00000000
Si      -0.47843730       1.69580529       1.58078738       0.00000000
Si      -2.07414054       0.45859608      -1.05211094       0.00000000
Si       1.99692594       0.17847324      -1.28406644       0.00000000
Si      -2.77586487       1.78258212       0.88433463       0.00000000
Si      -1.29248118       1.24769997      -3.11388007       0.00000000
Si       2.08150362      -2.34497808       1.94392912       0.00000000
Si       1.52005248      -1.03364937      -3.27134496       0.00000000
Si       2.39726898       2.46780046      -1.61582556       0.00000000
Si       0.19279215       2.97121033      -2.39994272       0.00000000
