10
Lattice="16.28999089631971 0.0 0.0 0.0 16.28999089631971 0.0 0.0 0.0 34.48637585096406" Properties=species:S:1:pos:R:3:initial_magmoms:R:1 pbc="T T T"
Si       1.12606254      -0.91885374       1.82853764       0.00000000
Si       1.34006427       1.29398379      -1.46670638       0.00000000
Si      -1.84443525       1.45635599       0.31606781       0.00000000
Si      -0.77030523      -2.03800932      -1.02507361       0.00000000
Si       0.29950794       0.28439082      -3.40056548       0.00000000
Si      -2.87197587      -1.30828248      -1.70342100       0.00000000
Si       0.36794223      -2.02408137      -3.03390612       0.00000000
Si      -2.08204119       0.52916436      -3.02814690       0.00000000
Si      -3.71270277      -0.01803303       0.18839918       0.00000000
Si      -2.15831097       2.53720564      -1.77453195       0.00000000
