10
Lattice="16.28999089631971 0.0 0.0 0.0 16.28999089631971 0.0 0.0 0.0 34.48637585096406" Properties=species:S:1:pos:R:3:initial_magmoms:R:1 pbc="T T T"
Si      -1.35698958      -1.35620766      -1.38514606       0.00000000
Si       1.35843939       1.35443205      -1.38576682       0.00000000
Si       1.29645594      -1.33550307       1.55492258       0.00000000
Si      -1.40776551       1.38341196       1.46391299       0.00000000
Si      -2.69923182       2.71081890      -0.02534750       0.00000000
Si       2.71472850      -2.71092316       0.00610409       0.00000000
Si       2.72456766       2.70629028      -0.00879403       0.00000000
Si      -2.71739191      -2.72160125      -0.00144843       0.00000000
Si       0.00057015       2.71415835      -2.74804840       0.00000000
Si      -2.71385210      -0.00257382      -2.74846223       0.00000000
