10
Lattice="16.28999089631971 0.0 0.0 0.0 16.28999089631971 0.0 0.0 0.0 34.48637585096406" Properties=species:S:1:pos:R:3:initial_magmoms:R:1 pbc="T T T"
Si       1.43414132      -1.12169586      -1.46169038       0.00000000
Si       1.61863534       1.17968270       1.23461950       0.00000000
Si      -0.76457115       1.67028701      -1.63146690       0.00000000
Si      -1.37824803      -1.82039025       1.27505480       0.00000000
Si      -2.43374229      -0.17365695       2.55309646       0.00000000
Si       0.15988635      -1.07091993      -3.39254915       0.00000000
Si       0.28357632       2.53943996       2.56073520       0.00000000
Si      -2.43374229       2.66940157      -0.25228699       0.00000000
Si       2.34527849       3.00903178      -0.16132891       0.00000000
Si      -2.15003565      -0.62475312      -3.13052152       0.00000000
