10
Lattice="16.28999089631971 0.0 0.0 0.0 16.28999089631971 0.0 0.0 0.0 34.48637585096406" Properties=species:S:1:pos:R:3:initial_magmoms:R:1 pbc="T T T"
Si       1.28334249      -1.42209975       1.36383002       0.00000000
Si      -1.43112537       1.30681475       1.34466248       0.00000000
Si       1.28334249       1.42095878      -1.44155343       0.00000000
Si      -1.56735864      -1.21449769      -1.42706914       0.00000000
Si       2.64287331      -0.05262484       2.71583121       0.00000000
Si       2.76545556       2.59616825      -0.09432029       0.00000000
Si      -0.07657929       2.66261516       2.71248602       0.00000000
Si      -2.75257017       2.67365978      -0.10736305       0.00000000
Si       2.33883675      -3.06883305       0.08578836       0.00000000
Si      -0.08340480      -2.76041448       2.71790039       0.00000000
