10
Lattice="16.28999089631971 0.0 0.0 0.0 16.28999089631971 0.0 0.0 0.0 34.48637585096406" Properties=species:S:1:pos:R:3:initial_magmoms:R:1 pbc="T T T"
Si      -1.58905692      -0.30380850       1.67962539       0.00000000
Si      -0.47117196       2.29535874      -0.32486184       0.00000000
Si      -0.12730635      -1.53081040      -1.81267390       0.00000000
Si       1.81471156      -0.88319982       1.25678770       0.00000000
Si      -1.37407779      -2.58265637       2.18481659       0.00000000
Si      -2.92358259       2.06983998      -0.74649251       0.00000000
Si      -2.49647508       0.56883051      -2.62206959       0.00000000
Si       2.08499361       0.78703506       2.93668898       0.00000000
Si       0.01138671      -0.28761624       3.68387121       0.00000000
Si       0.93584421      -3.02882318       1.92278896       0.00000000
