10
Lattice="16.28999089631971 0.0 0.0 0.0 16.28999089631971 0.0 0.0 0.0 34.48637585096406" Properties=species:S:1:pos:R:3:initial_magmoms:R:1 pbc="T T T"
Si      -1.35539316      -1.35848826       1.35652235       0.00000000
Si       1.35869256       1.35677781       1.35641889       0.00000000
Si      -1.35664749       1.35658233      -1.35886743       0.00000000
Si       1.35692998      -1.35863487      -1.36341963       0.00000000
Si      -2.71091664       2.71454931      -0.00120702       0.00000000
Si      -2.71355562      -0.00109143       2.71414827       0.00000000
Si       0.00158627       2.71401174       2.71411378       0.00000000
Si       0.00434943      -2.72841210      -2.70091929       0.00000000
Si      -2.71389771      -2.71577106       0.00027589       0.00000000
Si      -0.01753894       2.70780525      -2.72206635       0.00000000
