10
Lattice="16.28999089631971 0.0 0.0 0.0 16.28999089631971 0.0 0.0 0.0 34.48637585096406" Properties=species:S:1:pos:R:3:initial_magmoms:R:1 pbc="T T T"
Si      -1.56131505       1.11151557       1.36003996       0.00000000
Si       1.03452903      -1.43431821       1.60196203       0.00000000
Si      -0.81169812      -1.10521134      -2.16088303       0.00000000
Si       2.00324646       1.63931157       0.08473307       0.00000000
Si       1.10325654      -2.44962504      -1.78146371       0.00000000
Si      -2.26499418       2.33924400      -0.73011147       0.00000000
Si       2.70370017      -2.43343278       0.22278211       0.00000000
Si      -0.28773027       2.47010157       2.87118004       0.00000000
Si       2.51664210      -0.25910874       2.94919516       0.00000000
Si       3.06721152       1.59905898      -2.10411843       0.00000000
