10
Lattice="16.28999089631971 0.0 0.0 0.0 16.28999089631971 0.0 0.0 0.0 34.48637585096406" Properties=species:S:1:pos:R:3:initial_magmoms:R:1 pbc="T T T"
Si       2.11442475      -0.89621064       0.40573244       0.00000000
Si      -0.25141986       2.21162814      -0.75728675       0.00000000
Si      -0.84607002      -1.44951678      -1.68183252       0.00000000
Si      -1.06396506       0.04025259       2.18885150       0.00000000
Si      -2.20910319       2.06936757      -2.04928506       0.00000000
Si       1.71009555      -2.95784046       1.57971830       0.00000000
Si      -0.02357163      -0.85758705      -3.74211873       0.00000000
Si       3.87642446       0.13849758      -0.78291014       0.00000000
Si      -0.37489806      -3.74487552      -1.35697068       0.00000000
Si       1.03853215      -0.73648719       3.79424958       0.00000000
