10
Lattice="16.28999089631971 0.0 0.0 0.0 16.28999089631971 0.0 0.0 0.0 34.48637585096406" Properties=species:S:1:pos:R:3:initial_magmoms:R:1 pbc="T T T"
Si       0.00042354       1.33273377       1.98134686       0.00000000
Si      -1.12646490      -2.14985646       0.11915050       0.00000000
Si      -1.73676812       1.30448691      -1.12411854       0.00000000
Si       2.41697988       0.40153221      -0.24450854       0.00000000
Si       0.26282286       2.07161559      -2.22613129       0.00000000
Si       0.95861763      -0.38833731       3.26751697       0.00000000
Si       1.50395796      -0.06154362      -3.30910756       0.00000000
Si      -3.36993578      -1.24717869       0.69883231       0.00000000
Si       3.08131866       0.02580336       2.15222695       0.00000000
Si      -2.11428562       2.18787732       2.49640117       0.00000000
