10
Lattice="16.28999089631971 0.0 0.0 0.0 16.28999089631971 0.0 0.0 0.0 34.48637585096406" Properties=species:S:1:pos:R:3:initial_magmoms:R:1 pbc="T T T"
Si       1.35051986       1.36225125       1.35379793       0.00000000
Si       1.35377623      -1.35907470      -1.35969510       0.00000000
Si      -1.36225125       1.35744570      -1.35828116       0.00000000
Si      -1.36695906      -1.38289068       1.36083315       0.00000000
Si      -0.04759938       2.55655260       2.80991699       0.00000000
Si       2.66993819       0.01873350       2.75011758       0.00000000
Si       2.70914822      -2.71160082      -0.00382799       0.00000000
Si       2.71030481       2.71259451       0.00144843       0.00000000
Si       2.71115189       0.00057015      -2.71625194       0.00000000
Si      -2.71547784       2.71448415      -0.00027589       0.00000000
