10
Lattice="16.28999089631971 0.0 0.0 0.0 16.28999089631971 0.0 0.0 0.0 34.48637585096406" Properties=species:S:1:pos:R:3:initial_magmoms:R:1 pbc="T T T"
Si      -1.83334176      -0.80246169      -1.23909618       0.00000000
Si      -1.21536432       0.50282343       2.00669436       0.00000000
Si       0.89106300       1.90720062      -1.19695380       0.00000000
Si       1.81809173      -1.70364078      -0.01948481       0.00000000
Si      -0.42829668      -2.03224266      -2.64603764       0.00000000
Si       0.26487540       2.10370689       2.77360281       0.00000000
Si       2.28918224       0.71289927      -2.65307286       0.00000000
Si      -3.15780021      -2.08070541       0.31779213       0.00000000
Si       0.89163315      -3.49980876      -1.25237344       0.00000000
Si       3.60860057      -0.63061848      -1.25675321       0.00000000
