10
Lattice="16.28999089631971 0.0 0.0 0.0 16.28999089631971 0.0 0.0 0.0 34.48637585096406" Properties=species:S:1:pos:R:3:initial_magmoms:R:1 pbc="T T T"
Si       0.79319431       1.37287233       1.76291003       0.00000000
Si      -1.93447727      -1.31473332       0.51677863       0.00000000
Si       2.08906218      -1.04414013      -0.56543893       0.00000000
Si      -0.89550107       1.47054717      -1.67641815       0.00000000
Si       3.21561342       1.00805778      -1.11608321       0.00000000
Si      -2.90096297       2.07840852      -0.64058479       0.00000000
Si       3.06351369       1.74930165       1.14912117       0.00000000
Si      -3.72277718       0.17764245       0.37010799       0.00000000
Si       1.61732007      -2.29330620      -2.52254186       0.00000000
Si      -2.29194503      -2.72533329      -1.33200253       0.00000000
