10
Lattice="16.28999089631971 0.0 0.0 0.0 16.28999089631971 0.0 0.0 0.0 34.48637585096406" Properties=species:S:1:pos:R:3:initial_magmoms:R:1 pbc="T T T"
Si       1.37902995      -1.25082765      -1.38769805       0.00000000
Si       1.23181722       1.18439607       1.61765334       0.00000000
Si      -1.39751910      -1.39514076       1.31896667       0.00000000
Si      -1.34739477       1.48666517      -1.36776492       0.00000000
Si      -1.50791643       0.54268899       2.62031079       0.00000000
Si       2.52104040       2.69769635       0.06962803       0.00000000
Si       0.01016496      -2.58807375      -2.75201433       0.00000000
Si       2.67804342      -2.74600530       0.05817855       0.00000000
Si      -2.70884781       0.12846149      -2.75184190       0.00000000
Si      -2.82220992      -2.64463263      -0.03479677       0.00000000
