10
Lattice="16.28999089631971 0.0 0.0 0.0 16.28999089631971 0.0 0.0 0.0 34.48637585096406" Properties=species:S:1:pos:R:3:initial_magmoms:R:1 pbc="T T T"
Si       1.52453223       1.72846674      -0.01055284       0.00000000
Si      -2.23130646       0.68432661      -0.15170565       0.00000000
Si       0.29170503      -1.15999461       2.04562950       0.00000000
Si       0.49006836      -1.24005996      -1.97896730       0.00000000
Si       2.34366741      -2.29654791       1.54868055       0.00000000
Si       3.39159007       0.82173276      -1.02621166       0.00000000
Si      -1.35249354      -0.61626699      -3.34190412       0.00000000
Si      -0.07527609      -3.39835464      -1.38145602       0.00000000
Si      -1.48856391      -2.68236027       2.14739885       0.00000000
Si      -3.20194611      -0.62134947      -1.84415998       0.00000000
