10
Lattice="16.28999089631971 0.0 0.0 0.0 16.28999089631971 0.0 0.0 0.0 34.48637585096406" Properties=species:S:1:pos:R:3:initial_magmoms:R:1 pbc="T T T"
Si      -2.11442475       0.89621064      -0.40573244       0.00000000
Si       1.76199971       1.03470822      -1.18864258       0.00000000
Si      -0.40432920      -2.06162982       1.17398586       0.00000000
Si      -1.07589260       0.15972345       3.38851714       0.00000000
Si      -2.96049477      -0.55330614      -2.08756496       0.00000000
Si      -3.17838981       0.93646323       1.78311906       0.00000000
Si      -0.67461125      -3.73186470      -0.50591542       0.00000000
Si       0.95263105       2.32024986      -2.96848543       0.00000000
Si       0.63191354      -1.79753634       3.39130609       0.00000000
Si       2.88053626      -0.34484301      -2.75873918       0.00000000
