10
Lattice="16.28999089631971 0.0 0.0 0.0 16.28999089631971 0.0 0.0 0.0 34.48637585096406" Properties=species:S:1:pos:R:3:initial_magmoms:R:1 pbc="T T T"
Si      -1.99959098      -0.76712868       1.10201276       0.00000000
Si      -1.87549376       0.68331663      -1.38007656       0.00000000
Si       0.09695808       2.09101698       1.37045486       0.00000000
Si       1.24113510      -2.13315921      -1.08297627       0.00000000
Si      -0.26282286      -2.07161559       2.22613129       0.00000000
Si      -0.08498493       1.75633893      -2.61734496       0.00000000
Si       2.15415702      -1.67008338       1.98162275       0.00000000
Si       3.30185268       0.89578710      -1.49050200       0.00000000
Si       1.74809619       3.00641724      -1.52671271       0.00000000
Si       2.54884743      -1.02361473      -2.68190349       0.00000000
