10
Lattice="16.28999089631971 0.0 0.0 0.0 16.28999089631971 0.0 0.0 0.0 34.48637585096406" Properties=species:S:1:pos:R:3:initial_magmoms:R:1 pbc="T T T"
Si       2.19217788       0.10428858      -0.75190687       0.00000000
Si      -0.50736834      -0.22587714       2.34464279       0.00000000
Si      -1.25414592       1.27853694      -1.62903385       0.00000000
Si      -3.12473870       1.08387144      -0.14211843       0.00000000
Si       2.32702650      -2.17737027      -1.24157920       0.00000000
Si      -2.37761835       1.24778142       2.21264543       0.00000000
Si       2.21824188       0.74331270      -3.00276491       0.00000000
Si       1.46862495       0.54050220       3.50214312       0.00000000
Si       0.45598968      -3.08040642      -2.40287407       0.00000000
Si      -1.80329485      -0.07894134      -3.51278421       0.00000000
