10
Lattice="16.28999089631971 0.0 0.0 0.0 16.28999089631971 0.0 0.0 0.0 34.48637585096406" Properties=species:S:1:pos:R:3:initial_magmoms:R:1 pbc="T T T"
Si       1.29099879      -1.11923703      -1.67755620       0.00000000
Si      -0.36013932      -2.03463729       1.21961136       0.00000000
Si       0.84765015       1.58858451       1.70107593       0.00000000
Si      -1.63486766       1.32703227      -1.38383558       0.00000000
Si      -2.38291260      -1.34356662       2.20247362       0.00000000
Si       1.41076287      -1.87866054       2.74511705       0.00000000
Si      -0.54208233      -2.36931534      -2.76818845       0.00000000
Si       2.41784325       0.54340182      -2.90365101       0.00000000
Si       1.61559333       0.28971765       3.59810355       0.00000000
Si       2.59688664       2.90224269       0.70193609       0.00000000
