10
Lattice="16.28999089631971 0.0 0.0 0.0 16.28999089631971 0.0 0.0 0.0 34.48637585096406" Properties=species:S:1:pos:R:3:initial_magmoms:R:1 pbc="T T T"
Si      -0.80366715       2.13156346      -0.56950833       0.00000000
Si       1.98112464      -0.53582697      -1.23682007       0.00000000
Si      -0.25948341       0.15830622       2.39756316       0.00000000
Si      -1.37985585      -1.86730641      -0.69614237       0.00000000
Si      -3.24691370      -0.96057243       0.31951645       0.00000000
Si      -1.86498346       1.38334910      -2.57692690       0.00000000
Si       1.16069508       3.30119198       0.14394621       0.00000000
Si       0.22970529      -2.16306765       2.77015417       0.00000000
Si      -2.54781481      -0.31328928       2.51181659       0.00000000
Si       0.94871331      -1.59472584      -3.08946371       0.00000000
