10
Lattice="16.28999089631971 0.0 0.0 0.0 16.28999089631971 0.0 0.0 0.0 34.48637585096406" Properties=species:S:1:pos:R:3:initial_magmoms:R:1 pbc="T T T"
Si      -1.23829789       1.93846180      -0.05290213       0.00000000
Si       2.28833140       0.47159550      -0.11425343       0.00000000
Si      -0.06548305      -1.19542536       2.03855979       0.00000000
Si      -0.69909889      -0.64728315      -2.19230014       0.00000000
Si       2.77752010      -1.84977837       0.25833759       0.00000000
Si      -0.41021203       2.78111418      -2.09563477       0.00000000
Si       2.54781481       0.31328928      -2.51181659       0.00000000
Si      -2.11061110      -2.31945165       1.96706949       0.00000000
Si      -0.17514733       0.44044902       3.68256073       0.00000000
Si       1.16795895      -1.55401713      -3.20795896       0.00000000
