10
Lattice="16.28999089631971 0.0 0.0 0.0 16.28999089631971 0.0 0.0 0.0 34.48637585096406" Properties=species:S:1:pos:R:3:initial_magmoms:R:1 pbc="T T T"
Si      -1.27425497       0.05077593      -1.93085878       0.00000000
Si      -1.43414132       1.12169586       1.46169038       0.00000000
Si       1.51831434      -1.64615337       0.70093598       0.00000000
Si       2.36757720      -1.72905318      -1.76215133       0.00000000
Si      -0.39538762       2.19639929      -2.59686004       0.00000000
Si       0.18449402       2.30137857       2.69630988       0.00000000
Si      -2.19871247       2.79198287      -0.16977652       0.00000000
Si       2.92847448      -0.41814801       2.36665787       0.00000000
Si       0.34257544      -3.05911539       2.39750251       0.00000000
Si      -0.12510557       3.86663417      -0.91695876       0.00000000
