10
Lattice="10.86 0.0 0.0 0.0 10.86 0.0 0.0 0.0 10.86" Properties=species:S:1:pos:R:3:initial_magmoms:R:1 pbc="T T T"
Si      -1.22552928      -1.33133826       1.30255926       0.00000000
Si      -1.22552928       1.38366174      -1.41244074       0.00000000
Si       1.48947072      -1.33133826      -1.41244074       0.00000000
Si       2.75857032       2.47066086       0.00539742       0.00000000
Si      -2.58302928      -2.68883826      -0.05494074       0.00000000
Si      -2.51769552       0.07510776       2.75823366       0.00000000
Si       0.13197072      -2.68883826       2.66005926       0.00000000
Si      -2.58302928       0.02616174      -2.76994074       0.00000000
Si      -2.60644344       2.83257036      -0.18201360       0.00000000
Si       0.13197072      -2.68883826      -2.76994074       0.00000000
