10
Lattice="16.28999089631971 0.0 0.0 0.0 16.28999089631971 0.0 0.0 0.0 34.3005442915855" Properties=species:S:1:pos:R:3:initial_magmoms:R:1 pbc="T T T"
Si       0.35044677      -1.36625859      -1.85504307       0.00000000
Si       1.04554107       2.07107802      -0.29790039       0.00000000
Si       0.96531282      -1.46233701       1.61102886       0.00000000
Si      -2.11343202       0.77538771       0.78387078       0.00000000
Si      -1.58112369       0.90184698       3.10125114       0.00000000
Si      -0.57417363      -1.22021874       3.37119658       0.00000000
Si      -0.78133356       3.35712465      -1.24607087       0.00000000
Si       2.30790204      -2.55248010      -1.27306541       0.00000000
Si      -3.35758077      -1.18208385       0.91129737       0.00000000
Si       1.58975739       2.83924926       1.91205061       0.00000000
