10
Lattice="16.28999089631971 0.0 0.0 0.0 16.28999089631971 0.0 0.0 0.0 34.3005442915855" Properties=species:S:1:pos:R:3:initial_magmoms:R:1 pbc="T T T"
Si      -1.24414875      -1.95747156       0.12742659       0.00000000
Si       0.53230833       0.12645927       2.31738037       0.00000000
Si       2.11343202      -0.77538771      -0.78387078       0.00000000
Si      -0.80728353       1.67612697      -1.54198183       0.00000000
Si      -3.27531627      -0.78477075       0.52212318       0.00000000
Si       1.33209846       2.58173694      -2.02994165       0.00000000
Si       3.15897309       1.29569031      -1.08177117       0.00000000
Si       1.53925839      -1.99560645       2.58732580       0.00000000
Si       1.79054793       2.05894197       2.56677976       0.00000000
Si      -1.32154254      -2.89522170      -2.04036902       0.00000000
