10
Lattice="16.28999089631971 0.0 0.0 0.0 16.28999089631971 0.0 0.0 0.0 34.3005442915855" Properties=species:S:1:pos:R:3:initial_magmoms:R:1 pbc="T T T"
Si      -0.49555809       1.27904193       1.87369816       0.00000000
Si       1.84371849       0.40728258      -1.38738919       0.00000000
Si      -1.99863639       0.44856144      -1.17431409       0.00000000
Si       0.48596328      -2.49227226      -0.02648003       0.00000000
Si       2.71321353      -1.61676621      -0.64070022       0.00000000
Si      -1.57833810      -0.68913216       2.89570643       0.00000000
Si      -1.98283509      -1.52664993      -2.44003918       0.00000000
Si      -1.68604758       2.52273456      -2.37164386       0.00000000
Si       1.13801940       0.31280058      -3.68823669       0.00000000
Si      -3.15962469      -2.10908259       1.20285216       0.00000000
