10
Lattice="16.28999089631971 0.0 0.0 0.0 16.28999089631971 0.0 0.0 0.0 34.3005442915855" Properties=species:S:1:pos:R:3:initial_magmoms:R:1 pbc="T T T"
Si      -1.34825814      -1.32988302      -1.35465616       0.00000000
Si      -1.35485559       1.35793440       1.35531816       0.00000000
Si       1.36032903      -1.35327546       1.35559257       0.00000000
Si       1.36782243       1.36148562      -1.36820146       0.00000000
Si      -2.34165492       0.18318105      -2.90668120       0.00000000
Si       0.01435149      -2.66111811      -2.71516057       0.00000000
Si      -2.71262709       0.00094482       2.71187115       0.00000000
Si       0.00197109      -2.71308321       2.71245426       0.00000000
Si      -2.71283886       2.71433754      -0.00662001       0.00000000
Si       0.00198738       2.71637379       2.71214555       0.00000000
