10
Lattice="16.28999089631971 0.0 0.0 0.0 16.28999089631971 0.0 0.0 0.0 34.3005442915855" Properties=species:S:1:pos:R:3:initial_magmoms:R:1 pbc="T T T"
Si      -1.35576783       1.35725022      -1.36049755       0.00000000
Si       1.35834165      -1.36000323      -1.36070335       0.00000000
Si       1.35532800       1.36663326       1.37545259       0.00000000
Si      -1.36164852      -1.37717289       1.37380617       0.00000000
Si       2.71389771       2.71156824      -0.00082321       0.00000000
Si      -2.71272483      -2.71536381      -0.00298415       0.00000000
Si      -2.71560816       2.71378368      -0.00483638       0.00000000
Si       0.00153126       2.71334385      -2.71814815       0.00000000
Si      -2.71378368      -0.00114030      -2.71783945       0.00000000
Si       2.71598283      -0.00172674      -2.71804525       0.00000000
