10
Lattice="16.28999089631971 0.0 0.0 0.0 16.28999089631971 0.0 0.0 0.0 34.3005442915855" Properties=species:S:1:pos:R:3:initial_magmoms:R:1 pbc="T T T"
Si      -1.76518440      -0.67105026      -1.48837005       0.00000000
Si      -1.26429948       0.06356358       2.17071116       0.00000000
Si       2.05319160      -1.49719761       0.05001022       0.00000000
Si       0.92994723       1.99350504      -1.37449218       0.00000000
Si       1.96253775       1.25327115       2.60838635       0.00000000
Si      -0.31947948      -1.99106154      -2.86461156       0.00000000
Si       1.16905185      -3.27031524      -1.40248144       0.00000000
Si      -0.72233118      -3.13170363       1.94906092       0.00000000
Si      -2.72997594      -1.87703154       1.81744966       0.00000000
Si       2.39749704       0.75274461      -2.86296513       0.00000000
