10
Lattice="16.28999089631971 0.0 0.0 0.0 16.28999089631971 0.0 0.0 0.0 34.3005442915855" Properties=species:S:1:pos:R:3:initial_magmoms:R:1 pbc="T T T"
Si       1.60963119       1.75607829       0.18800139       0.00000000
Si      -0.39897468      -0.49806675       2.31065746       0.00000000
Si      -1.87123230       1.38212505      -0.59991685       0.00000000
Si       1.34640108      -1.79012439      -1.14961768       0.00000000
Si      -0.98655498       1.71857871       2.77330346       0.00000000
Si       0.98719029       2.90263365       2.16604628       0.00000000
Si      -0.08048889       1.58472378      -3.40511984       0.00000000
Si      -3.47865457      -0.21721086      -1.47585034       0.00000000
Si      -2.77216704       2.36157759       1.38663458       0.00000000
Si       1.71890451      -0.96177789       3.46740966       0.00000000
