10
Lattice="16.28999089631971 0.0 0.0 0.0 16.28999089631971 0.0 0.0 0.0 34.3005442915855" Properties=species:S:1:pos:R:3:initial_magmoms:R:1 pbc="T T T"
Si      -0.79671132       2.11642938       0.64457619       0.00000000
Si      -1.78124634      -1.51141878       0.35319290       0.00000000
Si       1.84049307      -0.48509991       1.40745502       0.00000000
Si       0.26640666       0.53618535      -2.29196365       0.00000000
Si      -2.51296056       2.35299276      -0.94817048       0.00000000
Si      -1.55921364      -1.69603335       2.73471532       0.00000000
Si      -1.89051966       1.20643740      -2.92621537       0.00000000
Si       3.81399399      -0.05701500       0.19908047       0.00000000
Si       1.00509300       3.65233203       0.79488126       0.00000000
Si       1.61580510       2.45868228      -2.60649982       0.00000000
