10
Lattice="16.28999089631971 0.0 0.0 0.0 16.28999089631971 0.0 0.0 0.0 34.3005442915855" Properties=species:S:1:pos:R:3:initial_magmoms:R:1 pbc="T T T"
Si       1.36029645       1.34276841       1.39320657       0.00000000
Si      -1.35319401      -1.37298636       1.39183454       0.00000000
Si       1.67809806      -1.12651866      -1.36587245       0.00000000
Si      -1.44044325       1.34009685      -1.59778542       0.00000000
Si       0.25699104       2.57883732      -2.78122144       0.00000000
Si      -2.71295289       2.69555517      -0.00092955       0.00000000
Si      -2.69772174      -2.73000852      -0.00687040       0.00000000
Si       2.73645936       2.69570230       0.02142070       0.00000000
Si       2.72746728      -2.72583828       0.03025310       0.00000000
Si       0.00539199       2.70197375       2.75322391       0.00000000
