10
Lattice="16.28999089631971 0.0 0.0 0.0 16.28999089631971 0.0 0.0 0.0 34.3005442915855" Properties=species:S:1:pos:R:3:initial_magmoms:R:1 pbc="T T T"
Si      -1.23934320       1.41069134      -1.40889221       0.00000000
Si       1.34154666       1.35823102       1.37216317       0.00000000
Si      -1.37616291      -1.35293389       1.37178586       0.00000000
Si       1.60761123      -1.21707529      -1.46823219       0.00000000
Si       0.54521001       2.35892898      -2.84654686       0.00000000
Si      -2.47946832      -0.11686498      -2.80264214       0.00000000
Si       2.70668124      -2.71212262       0.00424298       0.00000000
Si       2.70870120       2.71377405       0.00656170       0.00000000
Si       2.69892720       0.00565773       2.73269502       0.00000000
Si      -2.73645936      -2.69570230      -0.02142070       0.00000000
