10
Lattice="16.28999089631971 0.0 0.0 0.0 16.28999089631971 0.0 0.0 0.0 34.3005442915855" Properties=species:S:1:pos:R:3:initial_magmoms:R:1 pbc="T T T"
Si       1.35698958      -1.35708358      -1.35765060       0.00000000
Si      -1.35817875       1.35788831      -1.35734190       0.00000000
Si       1.35843939       1.35887548       1.35713609       0.00000000
Si      -1.35816246      -1.35915241       1.35905693       0.00000000
Si      -2.71409319       0.00088372      -2.71502680       0.00000000
Si       2.71456560      -2.71475734      -0.00068601       0.00000000
Si       2.71590138       0.00027000      -2.71413499       0.00000000
Si      -2.71547784      -2.71483879      -0.00003430       0.00000000
Si      -0.00013032      -2.71553926      -2.71485530       0.00000000
Si       2.71482624       2.71557021      -0.00017150       0.00000000
