10
Lattice="16.28999089631971 0.0 0.0 0.0 16.28999089631971 0.0 0.0 0.0 34.3005442915855" Properties=species:S:1:pos:R:3:initial_magmoms:R:1 pbc="T T T"
Si      -1.44179532      -0.17837224       1.89081856       0.00000000
Si       1.01902095       1.88860721      -1.08959170       0.00000000
Si      -1.86005736      -0.81216794      -1.31734744       0.00000000
Si       1.82174328      -1.61899535      -0.19410689       0.00000000
Si      -0.47405529      -2.13001265      -2.67290571       0.00000000
Si       2.25259749       0.62233339      -2.66577119       0.00000000
Si      -3.10498803      -1.61402690       0.83724245       0.00000000
Si      -2.01289014       2.08452704       2.21022541       0.00000000
Si       0.85744044      -3.45652364      -1.28332128       0.00000000
Si       3.63627009      -0.60139699      -1.25955099       0.00000000
