10
Lattice="16.28999089631971 0.0 0.0 0.0 16.28999089631971 0.0 0.0 0.0 34.3005442915855" Properties=species:S:1:pos:R:3:initial_magmoms:R:1 pbc="T T T"
Si       0.86001426       1.08216099      -1.89047556       0.00000000
Si      -1.83163131      -1.40093511      -0.56719412       0.00000000
Si       1.63176930      -1.52351410       0.80976770       0.00000000
Si      -0.48257496       2.17230408       0.99361872       0.00000000
Si      -1.09744101       2.26838250      -2.47245322       0.00000000
Si       1.61026650       2.95653726       1.65843224       0.00000000
Si      -3.46392189      -1.10208692       1.09799534       0.00000000
Si       3.52310346      -0.40687533       1.41963172       0.00000000
Si       0.96045840      -2.47051172       2.81923191       0.00000000
Si      -1.13526639      -3.67169174      -0.46261170       0.00000000
