10
Lattice="16.28999089631971 0.0 0.0 0.0 16.28999089631971 0.0 0.0 0.0 34.3005442915855" Properties=species:S:1:pos:R:3:initial_magmoms:R:1 pbc="T T T"
Si       1.34055297       1.36925595      -1.38982453       0.00000000
Si      -1.37520180      -1.34420193      -1.38790370       0.00000000
Si      -1.25022492       1.43016426       1.44844419       0.00000000
Si       1.46647467      -1.41301089       1.54359396       0.00000000
Si       2.70005121      -2.67928472      -0.03258554       0.00000000
Si       2.68845273       2.72173320      -0.01351442       0.00000000
Si      -2.74403421      -2.68848857      -0.00998146       0.00000000
Si       2.69781948       0.01262475      -2.74864135       0.00000000
Si      -2.73875625       2.70941796      -0.01368592       0.00000000
Si      -0.01702305      -2.70141794      -2.74829835       0.00000000
