10
Lattice="16.28999089631971 0.0 0.0 0.0 16.28999089631971 0.0 0.0 0.0 34.3005442915855" Properties=species:S:1:pos:R:3:initial_magmoms:R:1 pbc="T T T"
Si       1.40151015      -1.88651462      -0.20844452       0.00000000
Si      -0.17360253       1.29934416       2.07446378       0.00000000
Si      -2.19483641      -1.21326521      -0.64454189       0.00000000
Si       1.00318707       1.88177682      -1.56842756       0.00000000
Si      -1.07744829       1.80218388      -2.70188968       0.00000000
Si      -1.03190308       3.21688893       0.85562756       0.00000000
Si       3.47198544       0.91615449       0.84513158       0.00000000
Si      -2.27409377      -2.70748175       1.20971227       0.00000000
Si       3.51402993      -1.19257691      -0.79745380       0.00000000
Si       0.51113133      -3.20789426      -2.01759344       0.00000000
