10
Lattice="16.28999089631971 0.0 0.0 0.0 16.28999089631971 0.0 0.0 0.0 34.3005442915855" Properties=species:S:1:pos:R:3:initial_magmoms:R:1 pbc="T T T"
Si       1.25022492      -1.43016426      -1.44844419       0.00000000
Si      -1.24419762      -1.39851279       1.56547772       0.00000000
Si      -1.48853133       1.27925370      -1.46213012       0.00000000
Si       0.88413975       1.77311763       1.45249166       0.00000000
Si       2.57852781       2.68058466      -0.03416336       0.00000000
Si      -1.16905185       3.27031524       1.40248144       0.00000000
Si       2.59077789      -0.06090831      -2.83826872       0.00000000
Si      -1.89138303       0.13861161       3.35154236       0.00000000
Si      -0.12688281       2.65642659      -2.83593629       0.00000000
Si      -2.93423625       2.59926498      -0.08588861       0.00000000
