10
Lattice="16.28999089631971 0.0 0.0 0.0 16.28999089631971 0.0 0.0 0.0 34.3005442915855" Properties=species:S:1:pos:R:3:initial_magmoms:R:1 pbc="T T T"
Si       1.69438806       0.90746703      -1.48665502       0.00000000
Si      -0.88413975      -1.77311763      -1.45249166       0.00000000
Si      -2.05319160       1.49719761      -0.05001022       0.00000000
Si       1.52629155      -1.81161090       1.73903857       0.00000000
Si       0.23209992       0.42845958       2.94291974       0.00000000
Si       0.34430544       2.24994222      -2.91297535       0.00000000
Si      -2.77552278      -1.63450602       1.89905070       0.00000000
Si      -0.09065385       2.75046876       2.55837613       0.00000000
Si      -2.37267108      -0.49386393      -2.91462178       0.00000000
Si      -2.12833737      -3.17163042       0.11298606       0.00000000
