10
Lattice="16.28999089631971 0.0 0.0 0.0 16.28999089631971 0.0 0.0 0.0 34.3005442915855" Properties=species:S:1:pos:R:3:initial_magmoms:R:1 pbc="T T T"
Si       2.09284146       0.78423318       0.66481352       0.00000000
Si      -1.53948645       0.24211827       1.76016771       0.00000000
Si      -0.96531282       1.46233701      -1.61102886       0.00000000
Si       0.48257496      -2.17230408      -0.99361872       0.00000000
Si       1.34258922      -1.09014309      -2.88409428       0.00000000
Si      -0.61486605       0.09607842      -3.46607194       0.00000000
Si       2.92330566      -1.06611534       1.92415871       0.00000000
Si      -3.35015253      -1.12816395       1.06808525       0.00000000
Si      -2.54643651       2.36418399       1.49022228       0.00000000
Si      -3.07874484       2.23772472      -0.82715809       0.00000000
