10
Lattice="16.28999089631971 0.0 0.0 0.0 16.28999089631971 0.0 0.0 0.0 34.3005442915855" Properties=species:S:1:pos:R:3:initial_magmoms:R:1 pbc="T T T"
Si      -1.45169964       1.21767750      -1.35435775       0.00000000
Si       1.16108604       1.49705100       1.38492096       0.00000000
Si       1.82762397      -0.92321946      -1.30702297       0.00000000
Si      -1.59431859      -1.19363346       1.42894573       0.00000000
Si       0.49127382      -1.20878316      -3.17918202       0.00000000
Si      -0.23382666       1.04387949      -3.36426787       0.00000000
Si       2.47340844       0.11531691       2.77337347       0.00000000
Si       2.65903299      -2.70330921      -0.01111338       0.00000000
Si       2.22972633       3.08112318      -0.05930567       0.00000000
Si      -0.25347240      -2.61001638       2.76726454       0.00000000
