10
Lattice="16.28999089631971 0.0 0.0 0.0 16.28999089631971 0.0 0.0 0.0 34.3005442915855" Properties=species:S:1:pos:R:3:initial_magmoms:R:1 pbc="T T T"
Si       1.35856971       1.34493498      -1.37627581       0.00000000
Si      -1.35532800      -1.36663326      -1.37545259       0.00000000
Si       1.35008262      -1.34247519       1.42632033       0.00000000
Si      -1.46754981       1.24076043       1.48847295       0.00000000
Si      -0.34430544      -2.24994222       2.91297535       0.00000000
Si      -2.39749704      -0.75274461       2.86296513       0.00000000
Si      -2.70617625       2.69708643      -0.00404747       0.00000000
Si       2.72218932       2.70674640      -0.00291555       0.00000000
Si       2.71023246      -2.73149091      -0.00147492       0.00000000
Si       0.00408879       2.70697446      -2.73742507       0.00000000
