10
Lattice="16.28999089631971 0.0 0.0 0.0 16.28999089631971 0.0 0.0 0.0 34.3005442915855" Properties=species:S:1:pos:R:3:initial_magmoms:R:1 pbc="T T T"
Si       1.34434854       1.34702010       1.35363744       0.00000000
Si       1.35325917      -1.35114147      -1.35610708       0.00000000
Si      -1.36267479       1.35920502      -1.35302003       0.00000000
Si      -1.35700587      -1.36102950       1.37727052       0.00000000
Si      -2.55093255       0.14211396       2.73361771       0.00000000
Si      -0.04165353       2.66486481       2.70919570       0.00000000
Si       2.67584427       0.02050911       2.74322186       0.00000000
Si       2.70774009      -2.71318095       0.00504218       0.00000000
Si       2.71005327       0.00360009      -2.71276296       0.00000000
Si      -0.00462636      -2.71140534      -2.71228276       0.00000000
