10
Lattice="16.28999089631971 0.0 0.0 0.0 16.28999089631971 0.0 0.0 0.0 34.3005442915855" Properties=species:S:1:pos:R:3:initial_magmoms:R:1 pbc="T T T"
Si      -1.33149573       1.32651099      -1.38958443       0.00000000
Si       0.96430284       1.83752829       1.08921439       0.00000000
Si       1.39551543      -1.37187864      -1.36481942       0.00000000
Si      -1.66720005      -1.03045653       1.49581327       0.00000000
Si      -0.15486903      -0.56381319       3.34166379       0.00000000
Si       1.84575474       0.67624677       2.96449480       0.00000000
Si      -0.85744044       3.45652364       1.28332128       0.00000000
Si      -2.71749780       2.64435570      -0.03402616       0.00000000
Si      -2.67584427      -0.02050911      -2.74322186       0.00000000
Si       2.88481239      -2.53324161       0.11549000       0.00000000
