10
Lattice="16.28999089631971 0.0 0.0 0.0 16.28999089631971 0.0 0.0 0.0 34.3005442915855" Properties=species:S:1:pos:R:3:initial_magmoms:R:1 pbc="T T T"
Si       0.12452076       0.95944842      -2.24253654       0.00000000
Si       0.72542628       1.91404242       1.38174473       0.00000000
Si      -1.94054625      -0.69110325       1.46268377       0.00000000
Si       1.57939695      -2.03826996       0.02359879       0.00000000
Si      -2.25316764       1.53148806      -1.62385728       0.00000000
Si       1.82449629       0.41899509       2.85421990       0.00000000
Si      -2.61716769      -0.88668099      -2.17966361       0.00000000
Si       3.18146958      -0.99375516       1.44075199       0.00000000
Si      -3.07079532      -2.05677540      -0.08983318       0.00000000
Si      -0.52067727      -0.91329885      -3.57185488       0.00000000
