10
Lattice="16.28999089631971 0.0 0.0 0.0 16.28999089631971 0.0 0.0 0.0 34.3005442915855" Properties=species:S:1:pos:R:3:initial_magmoms:R:1 pbc="T T T"
Si       1.54438974      -1.21344210       1.26027130       0.00000000
Si       1.31147532       0.93960720      -1.73989608       0.00000000
Si      -1.90993734      -1.24230798      -0.66824358       0.00000000
Si      -0.69623460       1.66078179       1.54846464       0.00000000
Si      -0.39076452       2.36931534      -2.75203711       0.00000000
Si       2.83055040      -2.31291936      -0.38824808       0.00000000
Si       2.88816813       2.26333260      -0.49132127       0.00000000
Si      -2.96137539      -1.87686864       1.38701188       0.00000000
Si      -1.27622376       0.57824613       3.54057276       0.00000000
Si       2.77008192       0.24632109       2.67468934       0.00000000
