10
Lattice="16.28999089631971 0.0 0.0 0.0 16.28999089631971 0.0 0.0 0.0 34.3005442915855" Properties=species:S:1:pos:R:3:initial_magmoms:R:1 pbc="T T T"
Si      -2.07699129      -0.78646817      -0.60368992       0.00000000
Si       0.85867848       1.40434950      -1.63603398       0.00000000
Si       1.16538660      -1.90723550       0.76503977       0.00000000
Si      -0.44955513       1.65684450       1.66035307       0.00000000
Si       2.07534600      -0.50968478       2.46826855       0.00000000
Si      -2.56021785      -1.94207981       1.35480366       0.00000000
Si       2.08437066       2.86411269      -0.22161594       0.00000000
Si       3.01884066       1.39716561       1.33501223       0.00000000
Si      -0.60589026      -3.22674179       1.70789366       0.00000000
Si      -1.96193502       3.19603773       0.64426748       0.00000000
