10
Lattice="16.28999089631971 0.0 0.0 0.0 16.28999089631971 0.0 0.0 0.0 34.3005442915855" Properties=species:S:1:pos:R:3:initial_magmoms:R:1 pbc="T T T"
Si       1.09475316       1.69846056       1.22100886       0.00000000
Si      -1.62173466      -1.08303088       1.34597610       0.00000000
Si      -1.70593767       1.16414856      -1.36519673       0.00000000
Si       1.62227223      -2.05632580       0.01697878       0.00000000
Si       2.28675762       0.18937125       2.76969988       0.00000000
Si      -3.03090111      -0.74023389      -1.87013532       0.00000000
Si      -2.24549505      -2.98640402      -0.00343006       0.00000000
Si      -0.43574121      -2.53299511       2.79812819       0.00000000
Si       3.51621509      -1.22808355       1.34057376       0.00000000
Si      -1.59560550      -2.47868151      -2.65479501       0.00000000
