10
Lattice="16.28999089631971 0.0 0.0 0.0 16.28999089631971 0.0 0.0 0.0 34.3005442915855" Properties=species:S:1:pos:R:3:initial_magmoms:R:1 pbc="T T T"
Si      -1.34548884      -1.35285192      -1.37577159       0.00000000
Si       1.35731152      -1.35501849       1.36234978       0.00000000
Si      -1.35769005       1.36234899       1.36073765       0.00000000
Si       1.36008468       1.37371941      -1.39304535       0.00000000
Si      -2.65241925       0.03181437      -2.75903442       0.00000000
Si       2.71256097      -2.70943425       0.00648281       0.00000000
Si      -2.71186146      -2.71586880       0.00113192       0.00000000
Si      -0.00092853      -2.71109583       2.71893706       0.00000000
Si       2.71357258       2.71655298      -0.00051451       0.00000000
Si       2.71390327       0.00322542       2.71903997       0.00000000
