10
Lattice="16.28999089631971 0.0 0.0 0.0 16.28999089631971 0.0 0.0 0.0 34.3005442915855" Properties=species:S:1:pos:R:3:initial_magmoms:R:1 pbc="T T T"
Si       1.33966258       1.35526284       1.35223111       0.00000000
Si      -1.35436689       1.35213516      -1.35662159       0.00000000
Si       1.35819245      -1.36153449      -1.35555827       0.00000000
Si      -1.37469681      -1.35044100       1.37318876       0.00000000
Si       2.55595706      -0.02477709       2.76651195       0.00000000
Si       0.00210766       2.71156824      -2.71365478       0.00000000
Si      -2.71262709      -0.00366525      -2.71341467       0.00000000
Si      -2.71528236       2.71298547       0.00627700       0.00000000
Si       2.71734209      -0.00351864      -2.71310597       0.00000000
Si      -2.71427238      -2.71643895      -0.00037731       0.00000000
