10
Lattice="16.28999089631971 0.0 0.0 0.0 16.28999089631971 0.0 0.0 0.0 34.3005442915855" Properties=species:S:1:pos:R:3:initial_magmoms:R:1 pbc="T T T"
Si      -1.25904530       1.22696280      -1.55412423       0.00000000
Si      -1.76918915      -1.07932653       1.14176286       0.00000000
Si       1.78715309      -1.34540739      -0.78767814       0.00000000
Si       0.77964917       1.50462585       1.77272172       0.00000000
Si      -0.42166339      -2.41640973       2.62515932       0.00000000
Si      -1.31199401       2.65702932       2.10464827       0.00000000
Si       3.21218600      -1.08426240       1.38135229       0.00000000
Si      -3.00485081       0.93333555       1.95427460       0.00000000
Si      -0.28867183       3.06905229      -2.51865607       0.00000000
Si       3.07070735      -0.44445636      -2.54568492       0.00000000
