10
Lattice="16.28999089631971 0.0 0.0 0.0 16.28999089631971 0.0 0.0 0.0 34.3005442915855" Properties=species:S:1:pos:R:3:initial_magmoms:R:1 pbc="T T T"
Si      -1.48929696       1.16136297      -1.48030942       0.00000000
Si      -1.29811752      -1.57082841       1.32533947       0.00000000
Si       1.22316723      -1.53601668      -1.47320920       0.00000000
Si       0.79272027       1.62904887       1.93119032       0.00000000
Si       2.45687409       2.60682354       0.18391962       0.00000000
Si      -0.13882338       2.51791272      -2.85250346       0.00000000
Si      -2.88481239       2.53324161      -0.11549000       0.00000000
Si       2.58148362      -0.20093715      -2.85394408       0.00000000
Si       2.57794137      -2.93075019      -0.09343473       0.00000000
Si      -2.41293996      -0.35899902       3.17252772       0.00000000
