10
Lattice="16.28999089631971 0.0 0.0 0.0 16.28999089631971 0.0 0.0 0.0 34.3005442915855" Properties=species:S:1:pos:R:3:initial_magmoms:R:1 pbc="T T T"
Si       2.09337903      -0.54213120       1.01900114       0.00000000
Si      -1.45306800       0.96262497       1.68079621       0.00000000
Si      -0.25601364       1.94652468      -1.43811972       0.00000000
Si      -0.65471139      -1.82847105      -1.53666524       0.00000000
Si      -3.37134582       1.05269238       0.38097636       0.00000000
Si      -2.63691117       1.83493818      -1.75598305       0.00000000
Si       3.66921729      -0.58635855      -0.85507875       0.00000000
Si       0.86949504       1.51790220      -3.44394807       0.00000000
Si       1.77637563      -2.70687672       2.11507564       0.00000000
Si      -0.34656975       2.90747178       2.65452061       0.00000000
