10
Lattice="16.28999089631971 0.0 0.0 0.0 16.28999089631971 0.0 0.0 0.0 34.3005442915855" Properties=species:S:1:pos:R:3:initial_magmoms:R:1 pbc="T T T"
Si      -2.09337903       0.54213120      -1.01900114       0.00000000
Si       0.65230047       1.72387296       1.56973099       0.00000000
Si      -0.31700340      -2.16474552       1.09607451       0.00000000
Si       1.57583826      -0.04422735      -1.87407989       0.00000000
Si      -0.76439196      -3.56938335      -0.74912431       0.00000000
Si       3.40166870       1.27630521      -1.11651764       0.00000000
Si       2.74296463       1.00409931       2.43403658       0.00000000
Si      -3.54644703       1.50475617       0.66179507       0.00000000
Si       1.07136072       3.79998459       0.38663595       0.00000000
Si      -2.74809042      -1.28633985      -2.55566638       0.00000000
