10
Lattice="16.28999089631971 0.0 0.0 0.0 16.28999089631971 0.0 0.0 0.0 34.3005442915855" Properties=species:S:1:pos:R:3:initial_magmoms:R:1 pbc="T T T"
Si      -2.02497962      -1.18807857      -0.30006133       0.00000000
Si       1.64741259       0.24751026      -1.71396486       0.00000000
Si      -0.82666211       2.14206984       0.68018017       0.00000000
Si       0.92654751      -1.40061420       1.72758218       0.00000000
Si       3.39458025       1.06028352      -0.33652283       0.00000000
Si       2.15069214      -1.87831845      -2.42810259       0.00000000
Si      -1.48423307      -3.27031524      -1.32283553       0.00000000
Si       1.05119859      -0.10292022       3.70274583       0.00000000
Si      -1.48698608       3.29828517      -1.35974294       0.00000000
Si       0.99916833       3.46260240       1.43774242       0.00000000
