10
Lattice="16.28999089631971 0.0 0.0 0.0 16.28999089631971 0.0 0.0 0.0 34.3005442915855" Properties=species:S:1:pos:R:3:initial_magmoms:R:1 pbc="T T T"
Si      -1.35707728       1.35731538      -1.35737620       0.00000000
Si       1.35749550       1.35845568       1.35679309       0.00000000
Si       1.35767306      -1.35799956      -1.35710179       0.00000000
Si      -1.35647455      -1.35943308       1.35703319       0.00000000
Si      -0.00210766      -2.71156824       2.71365478       0.00000000
Si       2.71476201       0.00019548      -2.71406638       0.00000000
Si      -2.71392025       0.00112401      -2.71540411       0.00000000
Si       0.00224908       2.71259451       2.71722204       0.00000000
Si      -2.71481620       2.71513575       0.00075461       0.00000000
Si      -2.71473475      -2.71523349       0.00024010       0.00000000
