10
Lattice="16.28999089631971 0.0 0.0 0.0 16.28999089631971 0.0 0.0 0.0 34.3005442915855" Properties=species:S:1:pos:R:3:initial_magmoms:R:1 pbc="T T T"
Si       1.35716877       1.35651717       1.35686169       0.00000000
Si      -1.35830907      -1.35609363       1.35717039       0.00000000
Si       1.35731538      -1.35739683      -1.35717039       0.00000000
Si      -1.35815920       1.35806472      -1.35723900       0.00000000
Si       2.71252935       0.00074934       2.71386058       0.00000000
Si      -0.00104256      -2.71435383      -2.71368908       0.00000000
Si       2.71435383      -2.71417464       0.00085751       0.00000000
Si       0.00063531       2.71244790       2.71633022       0.00000000
Si       2.71508688      -0.00040725      -2.71372338       0.00000000
Si      -2.71446169       0.00118917      -2.71437509       0.00000000
