10
Lattice="16.28999089631971 0.0 0.0 0.0 16.28999089631971 0.0 0.0 0.0 34.3005442915855" Properties=species:S:1:pos:R:3:initial_magmoms:R:1 pbc="T T T"
Si       0.97037347       1.84208949      -0.96453184       0.00000000
Si       1.25904530      -1.22696280       1.55412423       0.00000000
Si      -2.52612909      -0.66383379      -1.05275289       0.00000000
Si      -1.22452551       2.90181915      -0.13685925       0.00000000
Si      -3.08780829       1.46350989       0.25931226       0.00000000
Si       1.64028995       0.66231882      -2.95900671       0.00000000
Si      -0.51014385      -2.30628933       2.69588709       0.00000000
Si      -1.42590249      -1.81237653      -2.83600489       0.00000000
Si       2.03869448       0.27766305       3.32684595       0.00000000
Si      -0.05294871       1.43006652       3.65877250       0.00000000
