10
Lattice="16.28999089631971 0.0 0.0 0.0 16.28999089631971 0.0 0.0 0.0 34.3005442915855" Properties=species:S:1:pos:R:3:initial_magmoms:R:1 pbc="T T T"
Si      -1.75677876       0.11064168       1.52712969       0.00000000
Si       2.22628914       0.70551990       0.32935401       0.00000000
Si      -0.76937670       1.56051684      -1.60180201       0.00000000
Si       0.63863316      -2.29167720      -0.24713556       0.00000000
Si       2.77801515      -1.38606723      -0.73509538       0.00000000
Si       2.08292085       1.28741499       2.58080870       0.00000000
Si      -2.48836103       2.36534058       1.29512068       0.00000000
Si      -1.10853450      -3.10445046      -1.62457759       0.00000000
Si      -2.98234388       1.93898241      -0.96940252       0.00000000
Si       0.35476362       3.54436191      -1.05083206       0.00000000
