10
Lattice="16.28999089631971 0.0 0.0 0.0 16.28999089631971 0.0 0.0 0.0 34.3005442915855" Properties=species:S:1:pos:R:3:initial_magmoms:R:1 pbc="T T T"
Si      -0.68189940       1.27119015      -1.85490587       0.00000000
Si      -1.34060347       0.99898425       1.69564835       0.00000000
Si      -0.62986914      -2.29433247       0.41009754       0.00000000
Si       2.34243684       0.61410042       0.34345154       0.00000000
Si       1.23598746      -2.59292817       1.81672934       0.00000000
Si       2.04226101       1.38896685       2.52386976       0.00000000
Si      -2.50772984      -0.04934241      -2.61246812       0.00000000
Si       0.09198963       2.64394845       2.54671394       0.00000000
Si       1.07487936       1.16054847      -3.38203556       0.00000000
Si       0.86402160      -0.91065987       3.60392590       0.00000000
