10
Lattice="16.28999089631971 0.0 0.0 0.0 16.28999089631971 0.0 0.0 0.0 34.3005442915855" Properties=species:S:1:pos:R:3:initial_magmoms:R:1 pbc="T T T"
Si       0.03554478      -0.95491980       2.27278964       0.00000000
Si       0.37196586      -1.68226830      -1.78719656       0.00000000
Si      -2.51134622       0.65446704       0.32143058       0.00000000
Si       1.17823941       2.29962672      -1.08005614       0.00000000
Si      -2.20462507       1.90964412      -1.90827755       0.00000000
Si       3.49958070       0.46884249       0.88560625       0.00000000
Si       1.00095534       0.90183069       3.47738911       0.00000000
Si      -1.49389074      -1.38367260      -3.19382837       0.00000000
Si      -0.77203197       3.55460832      -1.05721197       0.00000000
Si       0.05937705      -3.75644142      -0.58986679       0.00000000
