10
Lattice="10.86 0.0 0.0 0.0 10.86 0.0 0.0 0.0 10.86" Properties=species:S:1:pos:R:3:initial_magmoms:R:1 pbc="T T T"
Si      -1.68810012      -0.85978620      -1.13859498       0.00000000
Si      -1.39279500       1.51011558       1.30384074       0.00000000
Si       1.32725490       1.68912096      -1.17619230       0.00000000
Si      -0.21502800      -2.15890284       2.55141582       0.00000000
Si       2.45522880       0.14542626      -2.58535332       0.00000000
Si      -0.25977120      -2.56957374      -2.58535332       0.00000000
Si       2.45522880       2.86042626       0.12964668       0.00000000
Si      -0.25977120       2.86042626      -2.58535332       0.00000000
Si      -2.97477120      -2.56957374       0.12964668       0.00000000
Si      -2.97477120       0.14542626      -2.58535332       0.00000000
