10
Lattice="10.86 0.0 0.0 0.0 10.86 0.0 0.0 0.0 10.86" Properties=species:S:1:pos:R:3:initial_magmoms:R:1 pbc="T T T"
Si       1.12797390       1.17130530       1.30583898       0.00000000
Si       1.12797390      -1.54369470      -1.40916102       0.00000000
Si      -1.58702610       1.17130530      -1.40916102       0.00000000
Si      -1.32725490      -1.68912096       1.17619230       0.00000000
Si       2.46302628      -0.21415920       2.51001750       0.00000000
Si       2.48547390       2.52880530      -0.05166102       0.00000000
Si      -0.22952610       2.52880530       2.66333898       0.00000000
Si      -2.72004990      -0.17900538       2.48003304       0.00000000
Si       2.48547390      -0.18619470      -2.76666102       0.00000000
Si      -0.22952610       2.52880530      -2.76666102       0.00000000
