10
Lattice="10.86 0.0 0.0 0.0 10.86 0.0 0.0 0.0 10.86" Properties=species:S:1:pos:R:3:initial_magmoms:R:1 pbc="T T T"
Si       1.39755168       1.35756516       1.20784920       0.00000000
Si      -1.31744832       1.35756516      -1.50715080       0.00000000
Si       1.39755168      -1.35743484      -1.50715080       0.00000000
Si      -0.92406654      -1.83409110       1.40568582       0.00000000
Si      -2.55743226      -2.36061648      -0.03546876       0.00000000
Si      -2.51739144      -0.01918962       2.46954228       0.00000000
Si       2.57871786       0.16675530       2.55254526       0.00000000
Si       0.04005168       2.71506516       2.56534920       0.00000000
Si      -2.67494832       2.71506516      -0.14965080       0.00000000
Si       2.75505168       2.71506516      -0.14965080       0.00000000
