10
Lattice="10.86 0.0 0.0 0.0 10.86 0.0 0.0 0.0 10.86" Properties=species:S:1:pos:R:3:initial_magmoms:R:1 pbc="T T T"
Si      -0.74548470      -2.10877308      -0.77951994       0.00000000
Si      -0.78240870       0.59823396       2.17080540       0.00000000
Si       0.73968546       1.52814318      -1.87642338       0.00000000
Si      -2.36869632       2.00479944       0.64074000       0.00000000
Si      -2.36869632      -0.71020056      -2.07426000       0.00000000
Si       1.82890002      -2.16708042       2.03476218       0.00000000
Si      -0.85363944       3.34304466      -0.81256692       0.00000000
Si      -0.89368026       1.00161780      -3.31757796       0.00000000
Si      -3.72619632       0.64729944      -0.71676000       0.00000000
Si       0.34630368       2.00479944       3.35574000       0.00000000
