10
Lattice="10.86 0.0 0.0 0.0 10.86 0.0 0.0 0.0 10.86" Properties=species:S:1:pos:R:3:initial_magmoms:R:1 pbc="T T T"
Si      -1.14723954       1.14723954      -1.47040056       0.00000000
Si       1.50146016      -1.50146016      -1.47820890       0.00000000
Si      -2.58321390       2.58321390      -0.09529650       0.00000000
Si       0.13178610       2.58321390       2.61970350       0.00000000
Si      -2.58321390      -0.13178610       2.61970350       0.00000000
Si       0.13178610       2.58321390      -2.81029650       0.00000000
Si      -2.58321390      -0.13178610      -2.81029650       0.00000000
Si       2.84678610       2.58321390      -0.09529650       0.00000000
Si      -2.58321390      -2.84678610      -0.09529650       0.00000000
Si       2.84678610      -0.13178610       2.61970350       0.00000000
