10
Lattice="10.86 0.0 0.0 0.0 10.86 0.0 0.0 0.0 10.86" Properties=species:S:1:pos:R:3:initial_magmoms:R:1 pbc="T T T"
Si       0.92036328       1.22381340      -1.54190280       0.00000000
Si       1.09185354      -1.44560718       1.34618388       0.00000000
Si      -1.56738036       1.25557890       1.34940930       0.00000000
Si       2.50744368      -0.04873968       2.69533254       0.00000000
Si       2.50744368      -2.76373968      -0.01966746       0.00000000
Si      -0.20755632       2.66626032       2.69533254       0.00000000
Si      -0.20755632      -2.76373968       2.69533254       0.00000000
Si      -0.20755632      -2.76373968      -2.73466746       0.00000000
Si      -2.92255632       2.66626032      -0.01966746       0.00000000
Si      -0.19630536       2.67128850      -2.92750848       0.00000000
