10
Lattice="10.86 0.0 0.0 0.0 10.86 0.0 0.0 0.0 10.86" Properties=species:S:1:pos:R:3:initial_magmoms:R:1 pbc="T T T"
Si      -1.38871164      -1.27410606       1.36271280       0.00000000
Si       1.32628836       1.44089394       1.36271280       0.00000000
Si       1.33753932      -1.26907788      -1.54512822       0.00000000
Si      -1.38871164       1.44089394      -1.35228720       0.00000000
Si       2.45420796      -2.71655298      -0.15952254       0.00000000
Si      -0.08051604      -2.55716076      -2.79472326       0.00000000
Si      -2.74621164      -2.63160606       0.00521280       0.00000000
Si       2.73523218       0.19508904      -2.66576076       0.00000000
Si       2.59220598       0.17141424       2.81028564       0.00000000
Si      -0.03353568      -2.68478748       2.73178956       0.00000000
