10
Lattice="10.86 0.0 0.0 0.0 10.86 0.0 0.0 0.0 10.86" Properties=species:S:1:pos:R:3:initial_magmoms:R:1 pbc="T T T"
Si      -1.26135642       1.34563002      -1.34075388       0.00000000
Si      -1.26135642      -1.36936998       1.37424612       0.00000000
Si       1.45364358      -1.36936998      -1.34075388       0.00000000
Si      -0.13343682       2.61818310       2.56701078       0.00000000
Si      -2.61885642      -0.01186998      -2.69825388       0.00000000
Si      -2.61885642      -2.72686998       0.01674612       0.00000000
Si       0.09614358       2.70313002      -2.69825388       0.00000000
Si       0.09614358      -2.72686998      -2.69825388       0.00000000
Si      -2.66816082       2.77757532      -0.06818994       0.00000000
Si       0.09614358      -2.72686998       2.73174612       0.00000000
