10
Lattice="10.86 0.0 0.0 0.0 10.86 0.0 0.0 0.0 10.86" Properties=species:S:1:pos:R:3:initial_magmoms:R:1 pbc="T T T"
Si      -1.22938458      -1.46039850       1.39871370       0.00000000
Si       1.48561542       1.25460150       1.39871370       0.00000000
Si      -1.21697160       1.38306444      -1.62578544       0.00000000
Si       1.48561542      -1.46039850      -1.31628630       0.00000000
Si      -2.40797694       2.63841528       0.24020148       0.00000000
Si      -2.58688458      -0.10289850       2.75621370       0.00000000
Si       0.12811542       2.61210150       2.75621370       0.00000000
Si      -2.58688458      -2.81789850       0.04121370       0.00000000
Si       2.74679808       2.67773934       0.00432228       0.00000000
Si      -2.55326202      -0.05383302      -2.86516122       0.00000000
