10
Lattice="10.86 0.0 0.0 0.0 10.86 0.0 0.0 0.0 10.86" Properties=species:S:1:pos:R:3:initial_magmoms:R:1 pbc="T T T"
Si       1.22047938       1.25516622       1.30056102       0.00000000
Si       1.22047938      -1.45983378      -1.41443898       0.00000000
Si      -1.49452062       1.25516622      -1.41443898       0.00000000
Si      -1.38850530      -1.63303992       1.41113754       0.00000000
Si       2.71188318       0.16107552       2.36729538       0.00000000
Si       2.57797938       2.61266622      -0.05693898       0.00000000
Si      -0.13702062       2.61266622       2.65806102       0.00000000
Si       2.57797938      -0.10233378      -2.77193898       0.00000000
Si      -0.13702062       2.61266622      -2.77193898       0.00000000
Si       2.47472250      -2.95458246       0.11946000       0.00000000
