10
Lattice="16.28999089631971 0.0 0.0 0.0 16.28999089631971 0.0 0.0 0.0 34.49183129400761" Properties=species:S:1:pos:R:3:initial_magmoms:R:1 pbc="T T T"
Si       1.36822316      -1.32074107       1.35828908       0.00000000
Si      -1.34048522      -1.35914542      -1.36025511       0.00000000
Si       1.37328935       1.35827812      -1.35625406       0.00000000
Si      -1.40370671       1.31944276       1.44282860       0.00000000
Si       2.18115932       0.49767742       2.64490409       0.00000000
Si       0.25750906       2.42465410       2.82519299       0.00000000
Si      -0.19508090      -2.52114370       2.77507633       0.00000000
Si      -2.69330456      -2.71540195       0.01034756       0.00000000
Si      -2.69618789      -0.00174792      -2.71533644       0.00000000
Si      -2.69553629       2.71929133       0.01452107       0.00000000
