10
Lattice="16.28999089631971 0.0 0.0 0.0 16.28999089631971 0.0 0.0 0.0 34.49183129400761" Properties=species:S:1:pos:R:3:initial_magmoms:R:1 pbc="T T T"
Si       1.22295546      -1.35237306       1.53270057       0.00000000
Si      -1.04586687      -1.55779219      -1.48936643       0.00000000
Si      -1.48561542       1.34553282       1.50803544       0.00000000
Si       1.58944788       1.30068645      -1.56021269       0.00000000
Si       2.48521869       2.60473353       0.20886540       0.00000000
Si      -2.64919383      -2.64453067      -0.06070566       0.00000000
Si       2.68073127      -2.64619225       0.20429868       0.00000000
Si      -0.06011010       2.50575549      -2.95447676       0.00000000
Si       2.58478317      -0.00408227       2.90677311       0.00000000
Si      -2.95420779       2.54131656       0.02292673       0.00000000
