10
Lattice="16.28999089631971 0.0 0.0 0.0 16.28999089631971 0.0 0.0 0.0 34.49183129400761" Properties=species:S:1:pos:R:3:initial_magmoms:R:1 pbc="T T T"
Si      -1.35420399       1.35273789       1.35687491       0.00000000
Si       1.35822762       1.35633798      -1.35659897       0.00000000
Si      -1.35640314      -1.35826020      -1.35690940       0.00000000
Si       1.35593073      -1.35840681       1.36177275       0.00000000
Si      -2.71153566       2.71536381       0.00151764       0.00000000
Si      -2.71414206      -0.00081450      -2.71385329       0.00000000
Si       0.00065160       2.71393029      -2.71409474       0.00000000
Si      -2.71347417      -2.71497937       0.00065535       0.00000000
Si       2.71580364      -0.00127062      -2.71426720       0.00000000
Si       0.00086337      -2.71592256      -2.71430169       0.00000000
