10
Lattice="16.28999089631971 0.0 0.0 0.0 16.28999089631971 0.0 0.0 0.0 34.49183129400761" Properties=species:S:1:pos:R:3:initial_magmoms:R:1 pbc="T T T"
Si       1.35365013       1.35646015      -1.38581357       0.00000000
Si      -1.36099692      -1.35821697      -1.38708977       0.00000000
Si       1.55685159      -1.31672917       1.38884886       0.00000000
Si      -1.38637674       1.45982021       1.45434888       0.00000000
Si      -2.69829189      -2.71326144      -0.01355530       0.00000000
Si       2.71992501       2.70444136      -0.01645261       0.00000000
Si       2.71730232      -2.71777377      -0.04915089       0.00000000
Si      -2.71407690       2.72211601      -0.02331649       0.00000000
Si       2.71344159      -0.00182937      -2.74768980       0.00000000
Si      -0.00228060       2.71486697      -2.74758632       0.00000000
