10
Lattice="16.28999089631971 0.0 0.0 0.0 16.28999089631971 0.0 0.0 0.0 34.49183129400761" Properties=species:S:1:pos:R:3:initial_magmoms:R:1 pbc="T T T"
Si      -0.43512219       0.73233324      -2.27159879       0.00000000
Si       1.33105590      -1.94009013      -0.68618088       0.00000000
Si       1.11130380       0.72039267       2.10765902       0.00000000
Si      -2.49893487       1.29425679       0.56804629       0.00000000
Si      -2.51242299      -0.98922654       1.37739756       0.00000000
Si       0.64765782      -1.41828885       3.06070334       0.00000000
Si      -2.33448732      -2.62858046      -0.41759283       0.00000000
Si       3.45551625       0.41381487       1.71893586       0.00000000
Si       3.32322516      -1.89765468       0.67579883       0.00000000
Si      -0.04675230      -3.89712676      -0.08236654       0.00000000
