10
Lattice="16.28999089631971 0.0 0.0 0.0 16.28999089631971 0.0 0.0 0.0 34.49183129400761" Properties=species:S:1:pos:R:3:initial_magmoms:R:1 pbc="T T T"
Si      -2.18924568      -0.45372537       0.74512745       0.00000000
Si       0.25013295      -1.30420998      -1.97124375       0.00000000
Si       1.48208049      -1.15149123       1.45859138       0.00000000
Si       0.80518212       2.30798349      -0.33498485       0.00000000
Si       3.27554433      -0.94257198      -0.08578123       0.00000000
Si       2.49782715      -0.86465691      -2.29274229       0.00000000
Si      -3.48261304       0.50158539      -0.99291690       0.00000000
Si      -1.05420735       3.51583812       0.46477769       0.00000000
Si       2.44770282       2.59481781       1.32662556       0.00000000
Si       0.88648551       2.15731728       3.04783788       0.00000000
