10
Lattice="16.28999089631971 0.0 0.0 0.0 16.28999089631971 0.0 0.0 0.0 34.49183129400761" Properties=species:S:1:pos:R:3:initial_magmoms:R:1 pbc="T T T"
Si      -0.81293616      -1.81841849      -1.28661501       0.00000000
Si       1.06583841      -0.59081549       2.04971271       0.00000000
Si       1.88053389       0.96153354      -1.15844329       0.00000000
Si      -1.92365026       1.92697668       0.18028890       0.00000000
Si      -2.18115932      -0.49767742      -2.64490409       0.00000000
Si       0.55283373       2.22382935      -2.63610866       0.00000000
Si      -0.34777521      -2.31820451       2.83088414       0.00000000
Si      -2.37624022      -3.01882112       0.13017224       0.00000000
Si      -0.71558712       3.59886825      -1.15940907       0.00000000
Si      -3.58486604       0.82176534      -1.20207548       0.00000000
