10
Lattice="16.28999089631971 0.0 0.0 0.0 16.28999089631971 0.0 0.0 0.0 34.49183129400761" Properties=species:S:1:pos:R:3:initial_magmoms:R:1 pbc="T T T"
Si       0.74051082       1.69124409      -1.58020964       0.00000000
Si      -1.78355952      -0.82244952      -1.53764670       0.00000000
Si       1.89723114      -1.65121956      -0.18253087       0.00000000
Si      -0.16658154      -1.08929601       2.65711420       0.00000000
Si      -1.08908424       2.93716845       1.68375418       0.00000000
Si       2.21806269       0.50184603      -2.99958378       0.00000000
Si      -0.51513867      -2.19748842      -3.01434630       0.00000000
Si       2.45390931       2.84684040      -0.48650755       0.00000000
Si       0.81256149      -3.45978423      -1.53668093       0.00000000
Si      -2.99162266      -2.49434109      -0.19794873       0.00000000
