10
Lattice="16.28999089631971 0.0 0.0 0.0 16.28999089631971 0.0 0.0 0.0 34.49183129400761" Properties=species:S:1:pos:R:3:initial_magmoms:R:1 pbc="T T T"
Si      -1.64252070      -0.28683432      -1.66161041       0.00000000
Si      -1.56121731      -0.43750053       1.72121233       0.00000000
Si       1.74614139      -1.61515350      -0.44077136       0.00000000
Si       0.77845023       2.28591054       0.30473550       0.00000000
Si      -0.95646735       1.36518345       3.02752218       0.00000000
Si      -0.81840960      -2.56995927       2.25628441       0.00000000
Si      -0.34995807       0.59367276      -3.47108738       0.00000000
Si       3.21242058      -0.23110623      -1.66005828       0.00000000
Si       2.70746316       1.78083909       1.62191029       0.00000000
Si      -1.05412590       3.17361780       1.54364828       0.00000000
