10
Lattice="16.28999089631971 0.0 0.0 0.0 16.28999089631971 0.0 0.0 0.0 34.49183129400761" Properties=species:S:1:pos:R:3:initial_magmoms:R:1 pbc="T T T"
Si      -1.12873410      -1.72701693      -1.19545305       0.00000000
Si      -1.31885469       2.00052603      -0.31635925       0.00000000
Si       2.29731354      -0.27313443      -0.73888442       0.00000000
Si      -0.30149532       0.08834067       2.45488848       0.00000000
Si       2.27019069       1.79519058      -1.81471973       0.00000000
Si       0.10127493      -1.68625935      -3.13796509       0.00000000
Si      -2.65735512      -0.82536543       2.22969119       0.00000000
Si       2.42095464      -2.17710963       1.90539881       0.00000000
Si      -3.57013269       1.40641344      -0.70363375       0.00000000
Si       2.38943349      -1.73029122      -2.62362261       0.00000000
