10
Lattice="16.28999089631971 0.0 0.0 0.0 16.28999089631971 0.0 0.0 0.0 34.49183129400761" Properties=species:S:1:pos:R:3:initial_magmoms:R:1 pbc="T T T"
Si      -1.35755973       1.35729909       1.35756475       0.00000000
Si       1.35744570      -1.35770634       1.35739229       0.00000000
Si       1.35796698       1.35754344      -1.35721983       0.00000000
Si      -1.35798327      -1.35764118      -1.35759924       0.00000000
Si       0.00234576      -2.71402803       2.71330143       0.00000000
Si       2.71520091       2.71425609       0.00044839       0.00000000
Si      -2.71529865       2.71474479      -0.00010348       0.00000000
Si      -0.00013032       2.71466334       2.71547441       0.00000000
Si       2.71511946      -2.71511946      -0.00006898       0.00000000
Si      -0.00187335       2.71243161      -2.71819927       0.00000000
