10
Lattice="16.28999089631971 0.0 0.0 0.0 16.28999089631971 0.0 0.0 0.0 34.49183129400761" Properties=species:S:1:pos:R:3:initial_magmoms:R:1 pbc="T T T"
Si      -1.95774849       0.92172078       0.88661302       0.00000000
Si       1.54202769       1.55321892      -0.87260933       0.00000000
Si       1.08468594      -1.18050372       1.78043483       0.00000000
Si      -0.95239485      -1.65853377      -1.46400660       0.00000000
Si      -2.57414580      -1.15072560       1.93723479       0.00000000
Si       1.91886426      -1.54131093      -2.46968548       0.00000000
Si      -0.64887957      -1.18837179       3.38471979       0.00000000
Si       1.76568939       3.03931394       0.96970389       0.00000000
Si       3.40788429       0.10622709      -1.42561717       0.00000000
Si       2.20908690      -2.97365805       0.77820513       0.00000000
