10
Lattice="16.28999089631971 0.0 0.0 0.0 16.28999089631971 0.0 0.0 0.0 34.49183129400761" Properties=species:S:1:pos:R:3:initial_magmoms:R:1 pbc="T T T"
Si       1.26599364      -1.12246245       1.62284157       0.00000000
Si      -2.26807299      -0.14486697       0.61271323       0.00000000
Si       0.27300411      -0.89436987      -2.17160691       0.00000000
Si       0.41492259       2.37637610      -0.00200053       0.00000000
Si      -1.73314197      -0.12175146      -3.02062381       0.00000000
Si      -3.14248761       0.82427793      -1.33024720       0.00000000
Si       0.13680342      -3.22131492      -1.79892247       0.00000000
Si      -2.41043130       0.90803622       2.71909606       0.00000000
Si       1.22769585       0.21986613       3.58249606       0.00000000
Si      -0.49746402       3.24499148      -2.00680485       0.00000000
