10
Lattice="16.28999089631971 0.0 0.0 0.0 16.28999089631971 0.0 0.0 0.0 34.49183129400761" Properties=species:S:1:pos:R:3:initial_magmoms:R:1 pbc="T T T"
Si      -0.28809973       1.18985255       2.00045835       0.00000000
Si       2.17591069       0.35652946      -0.82163037       0.00000000
Si       0.04707973      -2.22387075       0.81587023       0.00000000
Si      -1.67892952       1.11055446      -1.25660710       0.00000000
Si       3.61206967      -0.79209378       0.68411136       0.00000000
Si       2.56188595       2.67535394      -0.82635576       0.00000000
Si       2.31826900      -0.69637374      -2.92801319       0.00000000
Si       1.32361789      -3.57947568      -0.63861661       0.00000000
Si      -0.26403549       3.51881756       1.73994140       0.00000000
Si       1.36851313      -2.32092657       2.86827331       0.00000000
