10
Lattice="16.28999089631971 0.0 0.0 0.0 16.28999089631971 0.0 0.0 0.0 34.49183129400761" Properties=species:S:1:pos:R:3:initial_magmoms:R:1 pbc="T T T"
Si       1.29336736      -0.95531076       1.73804435       0.00000000
Si      -2.30037673      -0.32355198       0.64427328       0.00000000
Si       0.60741175       2.34722610       0.03656136       0.00000000
Si       0.55500682      -1.03863411      -2.19871751       0.00000000
Si       3.48261304      -0.50158539       0.99291690       0.00000000
Si       1.27422661       2.74654287      -2.20396027       0.00000000
Si       0.90739210      -3.27413524       1.74276973       0.00000000
Si      -3.69844969       0.29944278      -1.17403361       0.00000000
Si       0.80401576       0.07097553       3.81614386       0.00000000
Si      -2.83594306       0.85032171       2.63138328       0.00000000
