10
Lattice="16.28999089631971 0.0 0.0 0.0 16.28999089631971 0.0 0.0 0.0 34.49183129400761" Properties=species:S:1:pos:R:3:initial_magmoms:R:1 pbc="T T T"
Si       1.51671303      -0.58257112      -1.68165017       0.00000000
Si       1.99216926       0.04243545       1.36197970       0.00000000
Si      -1.33105590       1.94009013       0.68618088       0.00000000
Si      -1.37780820      -1.95703663       0.60381434       0.00000000
Si       0.31570020      -1.22788970       2.46095905       0.00000000
Si       0.09238059      -1.91269068      -3.00506799       0.00000000
Si      -1.76617809       2.67242337      -1.58541791       0.00000000
Si      -3.66554322      -0.68849033       0.26858804       0.00000000
Si      -0.84988188      -3.40722359      -1.36815374       0.00000000
Si      -0.68339808       0.52180128       3.74688422       0.00000000
