10
Lattice="16.28999089631971 0.0 0.0 0.0 16.28999089631971 0.0 0.0 0.0 34.49183129400761" Properties=species:S:1:pos:R:3:initial_magmoms:R:1 pbc="T T T"
Si       1.36650294       1.34508159       1.38371992       0.00000000
Si      -1.34711784      -1.37093382       1.38151244       0.00000000
Si       1.47810573      -1.30548060      -1.33880463       0.00000000
Si      -1.44098082       1.39224114      -1.50849764       0.00000000
Si      -2.71430496       2.70699075       0.00682939       0.00000000
Si       2.73645936       2.68947900      -0.00033112       0.00000000
Si      -2.72647359      -2.71717200       0.01043723       0.00000000
Si       0.00819387       2.70457983       2.74442342       0.00000000
Si      -2.70796815      -0.01128897       2.74342316       0.00000000
Si       2.74649400      -2.71388142       0.02975267       0.00000000
