10
Lattice="16.28999089631971 0.0 0.0 0.0 16.28999089631971 0.0 0.0 0.0 34.49183129400761" Properties=species:S:1:pos:R:3:initial_magmoms:R:1 pbc="T T T"
Si      -0.95404014       0.05716161      -2.10409122       0.00000000
Si      -1.79652636      -1.01762001       1.04742023       0.00000000
Si       1.13068890       1.86794172       1.01445637       0.00000000
Si       1.77541452      -1.71833436      -0.01594282       0.00000000
Si      -0.35756550      -2.27983437       2.39784862       0.00000000
Si       2.39907717       0.45954090       2.38301367       0.00000000
Si       1.39952277      -2.26023750      -2.23478085       0.00000000
Si       1.03068459      -0.23249088      -3.32451637       0.00000000
Si      -2.69229717      -2.32166709      -0.72165785       0.00000000
Si       2.19607119       3.02684490      -0.73676528       0.00000000
