10
Lattice="16.28999089631971 0.0 0.0 0.0 16.28999089631971 0.0 0.0 0.0 34.49183129400761" Properties=species:S:1:pos:R:3:initial_magmoms:R:1 pbc="T T T"
Si       1.59273846       1.59433488       0.71318799       0.00000000
Si      -1.92901293       0.50507145      -1.31717479       0.00000000
Si      -1.37577195      -0.45968751       1.91995437       0.00000000
Si       1.52146971      -1.44026406      -1.20711129       0.00000000
Si      -2.70746316      -1.78083909      -1.62191029       0.00000000
Si       3.34042740      -0.12160485      -1.79605964       0.00000000
Si       3.10630752       2.05644960      -1.00657568       0.00000000
Si       0.55956150       3.40887798       1.73425025       0.00000000
Si       0.50495742      -2.01194532      -3.28196857       0.00000000
Si      -3.66393051      -0.41565564       1.40561189       0.00000000
