10
Lattice="16.28999089631971 0.0 0.0 0.0 16.28999089631971 0.0 0.0 0.0 34.49183129400761" Properties=species:S:1:pos:R:3:initial_magmoms:R:1 pbc="T T T"
Si       1.20845736       1.53197676       1.23732616       0.00000000
Si      -0.87656490      -0.87892695       2.03636437       0.00000000
Si       0.70151256      -1.88608878      -1.31027642       0.00000000
Si      -1.16861202       2.07536229       0.30887452       0.00000000
Si      -1.46717514       1.82145006      -2.52321684       0.00000000
Si      -1.48763538       1.03796622       3.20032636       0.00000000
Si       3.12118029      -1.70298918      -1.22973795       0.00000000
Si       1.34775315       3.14155908      -1.66274864       0.00000000
Si      -3.08464182      -1.67466087       1.47169828       0.00000000
Si       0.12329901      -3.89570463      -0.01834966       0.00000000
