10
Lattice="16.28999089631971 0.0 0.0 0.0 16.28999089631971 0.0 0.0 0.0 34.49183129400761" Properties=species:S:1:pos:R:3:initial_magmoms:R:1 pbc="T T T"
Si      -1.34470692       1.32923142       1.42006398       0.00000000
Si       1.25675721      -1.62264690       1.23601547       0.00000000
Si       1.78399935       1.70719200      -0.36885585       0.00000000
Si      -1.59539373      -1.37797110      -1.77808939       0.00000000
Si      -1.70041536       2.88207567      -0.45656863       0.00000000
Si       0.46874475       2.67633297      -2.03470876       0.00000000
Si       1.45143900      -2.98017405      -0.81738787       0.00000000
Si       0.36013932      -2.15718696      -2.85906399       0.00000000
Si      -0.00013032       2.48580513       2.96042316       0.00000000
Si      -2.72771163      -0.08382834       2.81754412       0.00000000
