10
Lattice="16.28999089631971 0.0 0.0 0.0 16.28999089631971 0.0 0.0 0.0 34.49183129400761" Properties=species:S:1:pos:R:3:initial_magmoms:R:1 pbc="T T T"
Si      -1.35708732       1.35690813      -1.35697839       0.00000000
Si       1.35729909      -1.35721764      -1.35684042       0.00000000
Si      -1.35576783      -1.35728280       1.35856501       0.00000000
Si       1.35811359       1.35760860       1.35763373       0.00000000
Si      -0.00061902       2.71551042       2.71312897       0.00000000
Si       0.00118917      -2.71438641      -2.71426720       0.00000000
Si       2.71542897       0.00000000      -2.71350838       0.00000000
Si      -2.71432125       0.00019548      -2.71464661       0.00000000
Si       2.71578735       0.00118917       2.71364634       0.00000000
Si      -2.71513575       2.71470088      -0.00031043       0.00000000
