10
Lattice="16.28999089631971 0.0 0.0 0.0 16.28999089631971 0.0 0.0 0.0 34.49183129400761" Properties=species:S:1:pos:R:3:initial_magmoms:R:1 pbc="T T T"
Si       2.25473148       0.99096957       0.54103917       0.00000000
Si       0.59986296      -1.02745917       2.39994296       0.00000000
Si      -2.04661044       1.44493929      -1.30513713       0.00000000
Si       2.15218593      -2.04665931       0.82373438       0.00000000
Si       0.79573392      -2.57986359      -1.77791693       0.00000000
Si       1.34402274       0.08821035      -3.07374126       0.00000000
Si      -0.66274236      -3.36676833      -0.03673382       0.00000000
Si       3.00830688       1.15487955      -1.75325526       0.00000000
Si      -2.57453676       2.89512624       0.66683095       0.00000000
Si       2.08888299       0.62007885       3.44401128       0.00000000
