10
Lattice="16.28999089631971 0.0 0.0 0.0 16.28999089631971 0.0 0.0 0.0 34.49183129400761" Properties=species:S:1:pos:R:3:initial_magmoms:R:1 pbc="T T T"
Si       0.75357540       0.16390998      -2.29429442       0.00000000
Si       0.39591216       2.39458017       0.38755043       0.00000000
Si      -2.25473148      -0.99096957      -0.54103917       0.00000000
Si       2.00000475      -1.93574070       0.10575201       0.00000000
Si      -0.16584849      -0.37089072       2.90297211       0.00000000
Si      -0.10254555      -3.03762888       0.28269521       0.00000000
Si      -1.65486852      -2.01842874       1.85890379       0.00000000
Si       2.54537766      -1.61997534      -2.22596607       0.00000000
Si      -0.91070874      -0.90275922      -3.61478043       0.00000000
Si       2.29628727       2.79152675       1.79123078       0.00000000
