10
Lattice="16.28999089631971 0.0 0.0 0.0 16.28999089631971 0.0 0.0 0.0 34.49183129400761" Properties=species:S:1:pos:R:3:initial_magmoms:R:1 pbc="T T T"
Si       1.29430403      -1.37002158       1.53700170       0.00000000
Si       1.08966905       1.84472847      -1.25046897       0.00000000
Si      -1.41891669       1.33638273       1.54234104       0.00000000
Si      -1.18405983      -1.54505763      -1.66381931       0.00000000
Si      -2.63126736       2.64600099      -0.05735995       0.00000000
Si      -2.72341989      -2.59509474       0.08597439       0.00000000
Si       2.54236238      -2.89351125       0.05387282       0.00000000
Si      -0.72094816       3.58896393      -1.36770677       0.00000000
Si       2.69382680       2.84211630       0.11596850       0.00000000
Si       2.65101668      -0.00728163       2.92685427       0.00000000
