10
Lattice="16.28999089631971 0.0 0.0 0.0 16.28999089631971 0.0 0.0 0.0 34.49183129400761" Properties=species:S:1:pos:R:3:initial_magmoms:R:1 pbc="T T T"
Si      -1.25708301       1.54267344      -1.24512131       0.00000000
Si       0.97911045       1.70233336       1.40602580       0.00000000
Si      -1.59653403      -1.25991747       1.36453210       0.00000000
Si       1.76327847      -0.61915032      -1.77253620       0.00000000
Si       1.62927693       0.04678488       2.90762851       0.00000000
Si       2.52618804      -1.68024834       1.44544998       0.00000000
Si      -2.38117446      -2.47682934      -0.46184588       0.00000000
Si       0.38066472      -2.00790540      -3.04604431       0.00000000
Si      -0.33295131       1.55228129      -3.34339855       0.00000000
Si       1.01470410      -3.62261907       0.87081575       0.00000000
