10
Lattice="16.28999089631971 0.0 0.0 0.0 16.28999089631971 0.0 0.0 0.0 34.49183129400761" Properties=species:S:1:pos:R:3:initial_magmoms:R:1 pbc="T T T"
Si      -1.35772263       1.35770634      -1.35987570       0.00000000
Si      -1.35920502      -1.35014941       1.36639466       0.00000000
Si       1.35899325      -1.35644224      -1.36053105       0.00000000
Si       1.35964485       1.36459701       1.36932647       0.00000000
Si      -2.55546117       0.13971933       2.78345785       0.00000000
Si       2.71469592      -2.71383974      -0.00544971       0.00000000
Si      -2.71616202      -2.71335104      -0.00438047       0.00000000
Si       2.71631673       2.71368594       0.00051738       0.00000000
Si      -0.00029322      -2.71406711      -2.71757841       0.00000000
Si       2.71471159       0.00066789      -2.71733697       0.00000000
