10
Lattice="16.28999089631971 0.0 0.0 0.0 16.28999089631971 0.0 0.0 0.0 34.49183129400761" Properties=species:S:1:pos:R:3:initial_magmoms:R:1 pbc="T T T"
Si      -1.33736013       1.34513209      -1.39005607       0.00000000
Si       1.38372147      -1.37481477      -1.39129778       0.00000000
Si      -1.09538847      -1.76134389       1.20811156       0.00000000
Si       1.06197768       1.59661222       1.46562771       0.00000000
Si       2.67331932       2.66002994       0.04118327       0.00000000
Si      -2.53361628       2.83500083       0.02700712       0.00000000
Si       0.69641379      -3.54522921       1.27643991       0.00000000
Si       2.66566302      -2.76572013       0.07222594       0.00000000
Si       0.02184489       2.69528150      -2.75645073       0.00000000
Si      -2.69431713      -0.01806954      -2.76083120       0.00000000
