10
Lattice="16.28999089631971 0.0 0.0 0.0 16.28999089631971 0.0 0.0 0.0 34.49183129400761" Properties=species:S:1:pos:R:3:initial_magmoms:R:1 pbc="T T T"
Si       1.36270737      -0.92538603      -1.60438843       0.00000000
Si       0.37589175       0.54190314       2.21883802       0.00000000
Si      -0.36883818       2.02774662      -1.08973553       0.00000000
Si      -2.19621780      -1.17323349       0.34064152       0.00000000
Si      -2.35356291       2.31739911       0.13068962       0.00000000
Si      -1.39952277       2.26023750       2.23478085       0.00000000
Si      -0.39936564      -1.40484308       3.33741563       0.00000000
Si      -1.54605132      -2.82878198       1.84224423       0.00000000
Si       0.79483797      -0.74484396      -3.89809649       0.00000000
Si       3.66836139      -0.41386374      -1.67126813       0.00000000
