10
Lattice="16.28999089631971 0.0 0.0 0.0 16.28999089631971 0.0 0.0 0.0 34.49183129400761" Properties=species:S:1:pos:R:3:initial_magmoms:R:1 pbc="T T T"
Si       1.35734796      -1.35684297      -1.35753025       0.00000000
Si      -1.35707103       1.35785295      -1.35718534       0.00000000
Si      -1.35715248      -1.35798327       1.35784068       0.00000000
Si       1.35765747       1.35866745       1.35728881       0.00000000
Si       2.71346062       0.00115659      -2.71461212       0.00000000
Si       0.00058644       2.71466334      -2.71409474       0.00000000
Si      -2.71505430       0.00008145      -2.71409474       0.00000000
Si      -2.71480995      -2.71459818       0.00010348       0.00000000
Si      -0.00042354      -2.71505430      -2.71457762       0.00000000
Si      -2.71484253       2.71533123       0.00096577       0.00000000
