10
Lattice="16.28999089631971 0.0 0.0 0.0 16.28999089631971 0.0 0.0 0.0 34.49183129400761" Properties=species:S:1:pos:R:3:initial_magmoms:R:1 pbc="T T T"
Si       1.35765747       1.35681039      -1.35690940       0.00000000
Si       1.35707103      -1.35785295       1.35718534       0.00000000
Si      -1.35798327      -1.35777150      -1.35690940       0.00000000
Si      -1.35777150       1.35747828       1.35815111       0.00000000
Si       2.71521720      -0.00087966      -2.71247362       0.00000000
Si       2.71441899      -2.71469592      -0.00034492       0.00000000
Si       2.71472850       0.00081450       2.71447415       0.00000000
Si       2.71464705       2.71480995      -0.00010348       0.00000000
Si      -2.71507059       2.71511946      -0.00010348       0.00000000
Si       0.00037467       2.71541268       2.71495703       0.00000000
