10
Lattice="16.28999089631971 0.0 0.0 0.0 16.28999089631971 0.0 0.0 0.0 34.49183129400761" Properties=species:S:1:pos:R:3:initial_magmoms:R:1 pbc="T T T"
Si       1.35667188       1.34908893      -1.36880909       0.00000000
Si      -1.35964485      -1.36459701      -1.36932647       0.00000000
Si       1.29182958      -1.39984857       1.42830753       0.00000000
Si      -1.28464569       1.50760692       1.34583752       0.00000000
Si      -0.31951206      -2.46326629       2.85275198       0.00000000
Si       2.69553629      -2.71929133      -0.01452107       0.00000000
Si      -2.71884987      -2.71474642      -0.00293181       0.00000000
Si       2.72738324       2.70853830       0.00369063       0.00000000
Si      -0.00255753       2.70976005      -2.72975404       0.00000000
Si       2.71305130      -0.00555489      -2.72989201       0.00000000
