10
Lattice="16.28999089631971 0.0 0.0 0.0 16.28999089631971 0.0 0.0 0.0 34.49183129400761" Properties=species:S:1:pos:R:3:initial_magmoms:R:1 pbc="T T T"
Si      -1.43668026       1.22497542      -1.35828908       0.00000000
Si      -1.51659900      -1.10605842       1.41737362       0.00000000
Si       1.45590246       1.21323033       1.43506793       0.00000000
Si       1.28464569      -1.50760692      -1.34583752       0.00000000
Si       0.30196773      -1.12027959       3.09198745       0.00000000
Si      -0.07872957       2.55840966      -2.71681959       0.00000000
Si      -3.29514120       0.63521226       1.67419993       0.00000000
Si      -2.77975818       2.54027889       0.14334813       0.00000000
Si       2.64131757      -0.15851799      -2.71464661       0.00000000
Si      -2.63046033      -2.73248460       0.06829386       0.00000000
