10
Lattice="16.28999089631971 0.0 0.0 0.0 16.28999089631971 0.0 0.0 0.0 34.49183129400761" Properties=species:S:1:pos:R:3:initial_magmoms:R:1 pbc="T T T"
Si      -0.56430189      -2.11142835       0.75074962       0.00000000
Si      -0.35518716       1.40533830       1.84300305       0.00000000
Si      -1.36966320       0.24770574      -1.92819792       0.00000000
Si       2.14357408       0.41658417      -1.14726793       0.00000000
Si       1.39150809       2.58188355      -1.55299557       0.00000000
Si      -0.01801674      -3.17733192      -1.30851734       0.00000000
Si       1.92623127       1.32133077       2.65235433       0.00000000
Si      -0.79276914      -1.78764831      -3.09560910       0.00000000
Si      -0.41187636       2.05244226      -3.03728338       0.00000000
Si       1.69175936      -0.88855434      -3.29752439       0.00000000
