10
Lattice="16.28999089631971 0.0 0.0 0.0 16.28999089631971 0.0 0.0 0.0 34.49183129400761" Properties=species:S:1:pos:R:3:initial_magmoms:R:1 pbc="T T T"
Si       1.35637942      -1.35464382      -1.36108292       0.00000000
Si      -1.35667188      -1.34908893       1.36880909       0.00000000
Si      -1.35922941       1.36067112      -1.36094495       0.00000000
Si       1.37071136       1.35944937       1.37249972       0.00000000
Si      -2.64131757       0.15851799       2.71464661       0.00000000
Si       2.71215377      -2.71010214      -0.00196604       0.00000000
Si       2.71192571       2.71660185      -0.00158663       0.00000000
Si      -2.71631673      -2.71368594      -0.00051738       0.00000000
Si      -0.00160514      -2.71301805      -2.71785435       0.00000000
Si       2.71344068       0.00228060      -2.71788884       0.00000000
