10
Lattice="16.28999089631971 0.0 0.0 0.0 16.28999089631971 0.0 0.0 0.0 34.49183129400761" Properties=species:S:1:pos:R:3:initial_magmoms:R:1 pbc="T T T"
Si       1.21235067      -1.30961826       1.59970099       0.00000000
Si       1.91031920       0.94296294      -1.31034682       0.00000000
Si      -1.49136579       1.40442606       1.60268108       0.00000000
Si      -1.68433713      -1.43163036      -1.48701408       0.00000000
Si       2.63126736      -2.64600099       0.05735995       0.00000000
Si      -2.74971942      -2.59053354       0.26420758       0.00000000
Si       2.54710996       2.79857313       0.17400794       0.00000000
Si      -1.15709499       1.89820854      -3.09188540       0.00000000
Si       2.56677362       0.06054993       2.98621474       0.00000000
Si      -2.94122466       2.67682167       0.23739361       0.00000000
