10
Lattice="16.28999089631971 0.0 0.0 0.0 16.28999089631971 0.0 0.0 0.0 34.49183129400761" Properties=species:S:1:pos:R:3:initial_magmoms:R:1 pbc="T T T"
Si       1.35119034       1.35109260      -1.38195048       0.00000000
Si      -1.36537893      -1.36593279      -1.38015691       0.00000000
Si       1.47714513      -1.28594889       1.38681384       0.00000000
Si      -1.40107032       1.36238157       1.45262429       0.00000000
Si      -2.71803537       2.68757307      -0.03097368       0.00000000
Si       2.70203112       2.70715365      -0.00983018       0.00000000
Si      -2.72332962      -2.69936703      -0.02162639       0.00000000
Si      -0.00417024       2.70803331      -2.73854946       0.00000000
Si       2.71014354      -0.00851967      -2.73848048       0.00000000
Si       2.72537957      -2.72341107      -0.00548420       0.00000000
