10
Lattice="16.28999089631971 0.0 0.0 0.0 16.28999089631971 0.0 0.0 0.0 34.49183129400761" Properties=species:S:1:pos:R:3:initial_magmoms:R:1 pbc="T T T"
Si      -2.17767978      -0.05167188      -0.69421748       0.00000000
Si       2.03885640       0.46635012      -0.95766623       0.00000000
Si       0.74951919      -2.12900526       0.60991939       0.00000000
Si      -1.00589121       1.25133264       1.78474632       0.00000000
Si      -0.07293033      -2.19274803       2.83709268       0.00000000
Si      -0.30705021      -0.01469358       3.62657664       0.00000000
Si      -3.30048432       1.14476346       1.22980693       0.00000000
Si       3.64983707      -0.03324789       0.74971486       0.00000000
Si       1.83723507       2.54663199      -2.02453366       0.00000000
Si       2.49621444      -0.95246001      -2.78607923       0.00000000
