10
Lattice="16.28999089631971 0.0 0.0 0.0 16.28999089631971 0.0 0.0 0.0 34.49183129400761" Properties=species:S:1:pos:R:3:initial_magmoms:R:1 pbc="T T T"
Si      -1.31525460       0.96914097      -1.66585291       0.00000000
Si       2.34468211      -0.62687178      -0.50647833       0.00000000
Si      -1.78399935      -1.70719200       0.36885585       0.00000000
Si      -0.36839835       1.89004725       1.84800437       0.00000000
Si      -3.12870627      -0.37796058       1.78891983       0.00000000
Si       3.06741419      -0.95524560       1.78153857       0.00000000
Si      -3.48441471       1.17488367      -0.08771278       0.00000000
Si      -1.97293077       3.11725440       0.48692145       0.00000000
Si      -0.52724214      -3.32983890       1.60487132       0.00000000
Si       1.15709499      -1.89820854       3.09188540       0.00000000
