10
Lattice="16.28999089631971 0.0 0.0 0.0 16.28999089631971 0.0 0.0 0.0 34.49183129400761" Properties=species:S:1:pos:R:3:initial_magmoms:R:1 pbc="T T T"
Si      -1.35610992      -1.35716877      -1.35742678       0.00000000
Si      -1.35729909       1.35721764       1.35684042       0.00000000
Si       1.35812988       1.35721764      -1.35666796       0.00000000
Si       1.35767376      -1.35799956       1.35687491       0.00000000
Si       0.00242721       2.71013472      -2.71592281       0.00000000
Si      -2.71306692      -0.00006516       2.71540543       0.00000000
Si      -2.71438641       2.71412577      -0.00013797       0.00000000
Si       0.00081450       2.71482624       2.71447415       0.00000000
Si       0.00097740      -2.71495656       2.71440516       0.00000000
Si       2.71526607       2.71412577      -0.00068984       0.00000000
