10
Lattice="16.28999089631971 0.0 0.0 0.0 16.28999089631971 0.0 0.0 0.0 34.49183129400761" Properties=species:S:1:pos:R:3:initial_magmoms:R:1 pbc="T T T"
Si       1.34048522       1.35914542       1.36025511       0.00000000
Si       1.35717759      -1.35526284      -1.35573668       0.00000000
Si      -1.35570267       1.35739750      -1.35508133       0.00000000
Si      -1.35281934      -1.35625653       1.37060267       0.00000000
Si       2.71128221      -2.71371852       0.00634650       0.00000000
Si       2.71444247       0.00009757      -2.71178378       0.00000000
Si       0.00001567       2.71450763      -2.71188726       0.00000000
Si      -0.00004088      -2.71490769      -2.71195624       0.00000000
Si      -2.71498914      -0.00022737      -2.71212870       0.00000000
Si       2.70870839       0.03840435       2.71854419       0.00000000
