10
Lattice="16.28999089631971 0.0 0.0 0.0 16.28999089631971 0.0 0.0 0.0 34.49183129400761" Properties=species:S:1:pos:R:3:initial_magmoms:R:1 pbc="T T T"
Si      -1.66428414      -1.06666920      -1.32048601       0.00000000
Si       1.09538847       1.76134389      -1.20811156       0.00000000
Si      -0.75357540      -0.16390998       2.29429442       0.00000000
Si       1.79180226      -1.78388532       0.06832836       0.00000000
Si       1.24642935      -2.09965068       2.40004644       0.00000000
Si      -0.35766324       2.23067019       2.68184486       0.00000000
Si      -0.23915349      -2.34924606      -2.61703467       0.00000000
Si       2.47910994       0.38652912      -2.59940933       0.00000000
Si      -3.00830688      -1.15487955       1.75325526       0.00000000
Si      -2.95220412       0.38354805      -2.62679586       0.00000000
