10
Lattice="16.28999089631971 0.0 0.0 0.0 16.28999089631971 0.0 0.0 0.0 34.49183129400761" Properties=species:S:1:pos:R:3:initial_magmoms:R:1 pbc="T T T"
Si       1.35676427       1.35672316       1.35690940       0.00000000
Si      -1.35776290       1.35572784      -1.35922036       0.00000000
Si      -1.35869143      -1.35880748       1.35690940       0.00000000
Si       1.36080094      -1.36077857      -1.36277302       0.00000000
Si      -2.69013829      -0.01799418      -2.72200027       0.00000000
Si       2.71342480      -0.00059631       2.71471559       0.00000000
Si      -0.00100200       2.71381374       2.71461212       0.00000000
Si      -0.00105855      -2.71560158       2.71454313       0.00000000
Si       2.71573798       2.71451421       0.00034492       0.00000000
Si      -2.71600681      -0.00092126       2.71437067       0.00000000
