10
Lattice="16.28999089631971 0.0 0.0 0.0 16.28999089631971 0.0 0.0 0.0 34.49183129400761" Properties=species:S:1:pos:R:3:initial_magmoms:R:1 pbc="T T T"
Si      -1.35726488      -1.35536041       1.35604711       0.00000000
Si      -1.35666052       1.35731947      -1.35780619       0.00000000
Si       1.35772263      -1.35772246      -1.35780619       0.00000000
Si       1.35835794       1.35832620       1.35721983       0.00000000
Si      -2.71444247      -0.00009757       2.71178378       0.00000000
Si      -2.71342480       0.00059631      -2.71471559       0.00000000
Si      -2.71442679       2.71441005      -0.00010348       0.00000000
Si       0.00231318       2.71511052      -2.71437067       0.00000000
Si      -2.71448335      -2.71500526      -0.00017246       0.00000000
Si       2.71461447       0.00075740      -2.71512949       0.00000000
