10
Lattice="16.28999089631971 0.0 0.0 0.0 16.28999089631971 0.0 0.0 0.0 34.49183129400761" Properties=species:S:1:pos:R:3:initial_magmoms:R:1 pbc="T T T"
Si       0.00554674      -0.90067410      -2.15015298       0.00000000
Si      -1.94910406       0.25396110       1.27830247       0.00000000
Si       0.64966312       2.26720962      -0.28238478       0.00000000
Si       1.55297620      -1.28791998       1.34856237       0.00000000
Si      -0.61335271      -3.08043900      -1.48059718       0.00000000
Si       1.38558016      -0.00791694       3.27365603       0.00000000
Si      -0.94882522       0.33899490       3.42200548       0.00000000
Si       2.14770781      -0.33956505      -2.99396161       0.00000000
Si      -2.69228644       2.46762549       1.23846439       0.00000000
Si      -0.62687504       3.62281455       1.17210207       0.00000000
