10
Lattice="16.28999089631971 0.0 0.0 0.0 16.28999089631971 0.0 0.0 0.0 34.49183129400761" Properties=species:S:1:pos:R:3:initial_magmoms:R:1 pbc="T T T"
Si       0.70902225      -1.32641325      -1.75994668       0.00000000
Si       0.57710583       2.01407931      -1.02837452       0.00000000
Si      -2.34132002       0.29134665      -0.00310427       0.00000000
Si       1.48988340      -0.21769956       1.90495042       0.00000000
Si      -2.65462559      -2.02996206       1.09577160       0.00000000
Si       3.01850442      -1.11935106      -1.52019382       0.00000000
Si      -2.33635432       2.33284203       1.47694104       0.00000000
Si       0.15227892      -3.54638187      -1.09142563       0.00000000
Si       2.25782658      -2.45426769       1.83669104       0.00000000
Si      -0.86094931       3.73089870      -0.10944264       0.00000000
