10
Lattice="16.28999089631971 0.0 0.0 0.0 16.28999089631971 0.0 0.0 0.0 34.49183129400761" Properties=species:S:1:pos:R:3:initial_magmoms:R:1 pbc="T T T"
Si       1.35783503       1.35747828      -1.35642652       0.00000000
Si       1.35698795      -1.35741312       1.35739229       0.00000000
Si      -1.35752798       1.35817875       1.35756475       0.00000000
Si      -1.35900844      -1.35690813      -1.35766822       0.00000000
Si       2.71384721      -0.00099369       2.71471559       0.00000000
Si       2.71130597      -0.00091224      -2.71768189       0.00000000
Si       2.71461284      -2.71479366       0.00000000       0.00000000
Si      -2.71470474       0.00151497       2.71492254       0.00000000
Si      -2.71517715      -2.71471221      -0.00003449       0.00000000
Si      -0.00039096      -2.71503801       2.71499153       0.00000000
