10
Lattice="16.28999089631971 0.0 0.0 0.0 16.28999089631971 0.0 0.0 0.0 34.49183129400761" Properties=species:S:1:pos:R:3:initial_magmoms:R:1 pbc="T T T"
Si       1.50881075      -1.21948569       1.33314452       0.00000000
Si      -1.35084078      -1.35606105      -1.37212031       0.00000000
Si       1.36229849       1.35873261      -1.36777433       0.00000000
Si      -1.41986151       1.32528924       1.46000554       0.00000000
Si      -2.70203112      -2.70715365       0.00983018       0.00000000
Si      -2.70180306       2.71619460      -0.00351817       0.00000000
Si      -2.70620136       0.00087966      -2.72871928       0.00000000
Si       0.40353425      -2.74866057       2.66180509       0.00000000
Si       0.00811242      -2.71567332      -2.72865030       0.00000000
Si       0.00819387       2.71718829      -2.72985751       0.00000000
