10
Lattice="16.28999089631971 0.0 0.0 0.0 16.28999089631971 0.0 0.0 0.0 34.49183129400761" Properties=species:S:1:pos:R:3:initial_magmoms:R:1 pbc="T T T"
Si       0.34010262      -2.04289632       1.09642695       0.00000000
Si      -1.48028859      -0.01757691      -1.90808917       0.00000000
Si      -1.23498888       1.35762489       1.56982759       0.00000000
Si       2.24158545       0.37053234      -0.89302850       0.00000000
Si      -0.33814782       1.53064098      -3.34874479       0.00000000
Si      -3.61466045      -0.02412549      -0.83401295       0.00000000
Si      -1.80205844      -2.60400537       1.94023558       0.00000000
Si      -0.16329096       3.44698029       1.51860720       0.00000000
Si       2.14982388      -1.14942240      -2.89762587       0.00000000
Si       2.19915000      -1.71064548       2.57305756       0.00000000
