10
Lattice="16.28999089631971 0.0 0.0 0.0 16.28999089631971 0.0 0.0 0.0 34.49183129400761" Properties=species:S:1:pos:R:3:initial_magmoms:R:1 pbc="T T T"
Si       1.84438638      -0.62014401      -1.22670267       0.00000000
Si      -0.24149925      -0.72482355       2.19564773       0.00000000
Si      -2.06793405      -0.45320409      -0.99805619       0.00000000
Si       0.22051773       2.33417781       0.32467179       0.00000000
Si      -2.02303881       0.80534502       2.50883373       0.00000000
Si      -3.34447221       0.90240084       0.45643066       0.00000000
Si       2.46078369       1.45230237      -2.27732443       0.00000000
Si      -0.50665158       2.61848718       2.53401279       0.00000000
Si       2.42248590       2.79463095      -0.31766994       0.00000000
Si       1.28915802      -2.72772792      -2.23300241       0.00000000
