10
Lattice="10.86 0.0 0.0 0.0 10.86 0.0 0.0 0.0 10.86" Properties=species:S:1:pos:R:3:initial_magmoms:R:1 pbc="T T T"
Si      -1.27410606      -1.41204978      -1.41579648       0.00000000
Si       1.44089394      -1.41204978       1.29920352       0.00000000
Si       1.44089394       1.30295022      -1.41579648       0.00000000
Si       0.05364840       2.52867498       2.63516814       0.00000000
Si      -2.68553682       2.49449856       0.02202408       0.00000000
Si      -2.63160606      -2.76954978      -0.05829648       0.00000000
Si      -2.63160606      -0.05454978      -2.77329648       0.00000000
Si       0.08339394      -2.76954978       2.65670352       0.00000000
Si       0.08339394       2.66045022      -2.77329648       0.00000000
Si       2.79839394      -0.05454978       2.65670352       0.00000000
