10
Lattice="10.86 0.0 0.0 0.0 10.86 0.0 0.0 0.0 10.86" Properties=species:S:1:pos:R:3:initial_magmoms:R:1 pbc="T T T"
Si      -1.46189718      -1.35335148       1.24419762       0.00000000
Si       1.25310282      -1.35335148      -1.47080238       0.00000000
Si       1.96769082       0.92867118       1.09742472       0.00000000
Si      -1.46189718       1.36164852      -1.47080238       0.00000000
Si       0.23833356       2.37204120       2.16671118       0.00000000
Si       2.67314556      -2.52529752      -0.22500834       0.00000000
Si      -2.81939718       0.00414852       2.60169762       0.00000000
Si       2.61060282       0.00414852      -2.82830238       0.00000000
Si      -2.81939718      -2.71085148      -0.11330238       0.00000000
Si      -2.81939718       2.71914852      -0.11330238       0.00000000
