10
Lattice="10.86 0.0 0.0 0.0 10.86 0.0 0.0 0.0 10.86" Properties=species:S:1:pos:R:3:initial_magmoms:R:1 pbc="T T T"
Si      -1.96769082      -0.92867118      -1.09742472       0.00000000
Si       0.94943550       1.87532652      -1.28599776       0.00000000
Si      -1.72935726       1.44337002       1.06928646       0.00000000
Si       1.73504790      -1.94782788       0.03263430       0.00000000
Si       2.00041200       0.43297734      -2.56822710       0.00000000
Si      -0.71458800      -2.28202266      -2.56822710       0.00000000
Si       2.00041200       3.14797734       0.14677290       0.00000000
Si       0.70545474      -3.45396870      -1.32243306       0.00000000
Si       0.64291200      -0.92452266      -3.92572710       0.00000000
Si      -3.42958800      -2.28202266       0.14677290       0.00000000
