10
Lattice="10.86 0.0 0.0 0.0 10.86 0.0 0.0 0.0 10.86" Properties=species:S:1:pos:R:3:initial_magmoms:R:1 pbc="T T T"
Si      -1.02959316      -1.50614082      -1.35506736       0.00000000
Si       1.31849088      -1.58260608       1.14538248       0.00000000
Si      -1.73504790       1.94782788      -0.03263430       0.00000000
Si       0.26536410       2.38080522      -2.60086140       0.00000000
Si       2.40230802       1.73410308      -1.93364472       0.00000000
Si      -2.44963590      -0.33419478      -2.60086140       0.00000000
Si       2.98036410       2.38080522       0.11413860       0.00000000
Si      -2.44963590      -3.04919478       0.11413860       0.00000000
Si       2.98036410      -0.33419478      -2.60086140       0.00000000
Si      -3.70273872       1.01915670      -1.13005902       0.00000000
