10
Lattice="10.86 0.0 0.0 0.0 10.86 0.0 0.0 0.0 10.86" Properties=species:S:1:pos:R:3:initial_magmoms:R:1 pbc="T T T"
Si       0.89275716       1.59889608       1.10250720       0.00000000
Si       0.89275716      -1.11610392      -1.61249280       0.00000000
Si      -1.82224284      -1.11610392       1.10250720       0.00000000
Si       2.25025716       0.24139608       2.46000720       0.00000000
Si       2.25025716      -2.47360392      -0.25499280       0.00000000
Si      -0.46474284      -2.47360392       2.46000720       0.00000000
Si       2.25025716       2.95639608      -0.25499280       0.00000000
Si       2.25025716       0.24139608      -2.96999280       0.00000000
Si      -0.46474284       2.95639608       2.46000720       0.00000000
Si       3.60775716      -1.11610392       1.10250720       0.00000000
