10
Lattice="10.86 0.0 0.0 0.0 10.86 0.0 0.0 0.0 10.86" Properties=species:S:1:pos:R:3:initial_magmoms:R:1 pbc="T T T"
Si       1.26686244       1.15996746       1.48806978       0.00000000
Si       1.26686244      -1.55503254      -1.22693022       0.00000000
Si      -1.44813756      -1.55503254       1.48806978       0.00000000
Si      -2.05363686      -0.41804484      -1.71299124       0.00000000
Si       2.68124712       2.23448844       0.36521094       0.00000000
Si       2.90976324      -0.24627222      -2.38963440       0.00000000
Si      -0.09063756       2.51746746       2.84556978       0.00000000
Si      -2.91192438       2.52144222      -0.00783006       0.00000000
Si       2.62436244      -0.19753254       2.84556978       0.00000000
Si      -0.09063756      -2.91253254      -2.58443022       0.00000000
