10
Lattice="10.86 0.0 0.0 0.0 10.86 0.0 0.0 0.0 10.86" Properties=species:S:1:pos:R:3:initial_magmoms:R:1 pbc="T T T"
Si      -1.25121318       1.35352524      -1.21910016       0.00000000
Si      -1.25121318      -1.36147476       1.49589984       0.00000000
Si       1.46378682       1.35352524       1.49589984       0.00000000
Si       0.85828752      -2.93948706      -1.70516118       0.00000000
Si      -2.60871318      -0.00397476      -2.57660016       0.00000000
Si      -2.60871318       2.71102524       0.13839984       0.00000000
Si      -2.60871318      -2.71897476       0.13839984       0.00000000
Si       0.09821784       2.66168826      -2.70741972       0.00000000
Si       2.91192438      -2.52144222       0.00783006       0.00000000
Si      -2.60871318      -0.00397476       2.85339984       0.00000000
