10
Lattice="10.86 0.0 0.0 0.0 10.86 0.0 0.0 0.0 10.86" Properties=species:S:1:pos:R:3:initial_magmoms:R:1 pbc="T T T"
Si       1.43352000      -1.14120138      -1.11128208       0.00000000
Si      -1.28148000       1.57379862      -1.11128208       0.00000000
Si      -1.28148000      -1.14120138       1.60371792       0.00000000
Si       1.25006202       1.52758932       1.60379394       0.00000000
Si       0.07602000      -2.49870138      -2.46878208       0.00000000
Si      -2.63898000       0.21629862      -2.46878208       0.00000000
Si      -2.63898000      -2.49870138       0.24621792       0.00000000
Si       2.79102000       0.21629862      -2.46878208       0.00000000
Si       2.79102000      -2.49870138       0.24621792       0.00000000
Si       0.07602000       2.93129862      -2.46878208       0.00000000
