10
Lattice="10.86 0.0 0.0 0.0 10.86 0.0 0.0 0.0 10.86" Properties=species:S:1:pos:R:3:initial_magmoms:R:1 pbc="T T T"
Si       0.94493946       1.58233458       1.08313296       0.00000000
Si       1.35750000      -1.35750000      -1.35750000       0.00000000
Si      -1.35750000      -1.35750000       1.35750000       0.00000000
Si      -1.35750000       1.35750000      -1.35750000       0.00000000
Si       0.00000000      -2.71500000      -2.71500000       0.00000000
Si      -2.71500000      -2.71500000       0.00000000       0.00000000
Si       2.71500000       2.71500000       0.00000000       0.00000000
Si       0.00000000      -2.71500000       2.71500000       0.00000000
Si      -2.71500000       0.00000000       2.71500000       0.00000000
Si       0.00000000       2.71500000       2.71500000       0.00000000
