10
Lattice="10.86 0.0 0.0 0.0 10.86 0.0 0.0 0.0 10.86" Properties=species:S:1:pos:R:3:initial_magmoms:R:1 pbc="T T T"
Si      -0.94493946      -1.58233458      -1.08313296       0.00000000
Si      -0.94493946       1.13266542       1.63186704       0.00000000
Si       1.77006054       1.13266542      -1.08313296       0.00000000
Si      -2.30243946      -0.22483458      -2.44063296       0.00000000
Si      -2.30243946       2.49016542       0.27436704       0.00000000
Si       0.41256054       2.49016542      -2.44063296       0.00000000
Si      -2.30243946      -2.93983458       0.27436704       0.00000000
Si      -2.30243946      -0.22483458       2.98936704       0.00000000
Si       0.41256054      -2.93983458      -2.44063296       0.00000000
Si       0.41256054       2.49016542       2.98936704       0.00000000
