10
Lattice="16.28999089631971 0.0 0.0 0.0 16.28999089631971 0.0 0.0 0.0 34.69518985606464" Properties=species:S:1:pos:R:3:initial_magmoms:R:1 pbc="T T T"
Si       1.43798509      -1.00336626      -1.63386679       0.00000000
Si       1.11909205       2.14338674       0.02307231       0.00000000
Si       0.23558598      -1.34017830       2.01013634       0.00000000
Si      -2.20871779       0.68141070      -0.76388442       0.00000000
Si       3.47964337       0.00485442      -0.96188998       0.00000000
Si      -1.68303949       2.56032766      -2.11956503       0.00000000
Si      -1.48070140      -3.05031879       1.76848421       0.00000000
Si       0.56046397      -0.53955738      -3.82820000       0.00000000
Si       2.88745300       2.16410274      -1.50813136       0.00000000
Si      -0.20804285       0.20268018       3.93346526       0.00000000
