10
Lattice="16.28999089631971 0.0 0.0 0.0 16.28999089631971 0.0 0.0 0.0 34.69518985606464" Properties=species:S:1:pos:R:3:initial_magmoms:R:1 pbc="T T T"
Si       1.34635221      -1.19176893       1.53985319       0.00000000
Si       1.87046667       0.93449051      -1.23356531       0.00000000
Si      -0.97906158      -1.72956699      -1.43313215       0.00000000
Si      -1.35923760       1.52293418       1.49370856       0.00000000
Si       2.46915675      -2.72941461       0.18125818       0.00000000
Si      -2.73199590      -2.58888078       0.01059245       0.00000000
Si       0.00254124      -2.54269863       2.89625545       0.00000000
Si       3.53981700      -1.04947950      -1.13479876       0.00000000
Si       2.72046258       2.80689569       0.09053368       0.00000000
Si       0.68044959      -3.70293759      -1.14035173       0.00000000
