10
Lattice="16.28999089631971 0.0 0.0 0.0 16.28999089631971 0.0 0.0 0.0 34.69518985606464" Properties=species:S:1:pos:R:3:initial_magmoms:R:1 pbc="T T T"
Si       1.27198836      -1.40934238      -1.41969327       0.00000000
Si      -1.43808120       1.34131860      -1.39329021       0.00000000
Si      -1.89258849      -0.83440638       1.33368384       0.00000000
Si       1.62505782       0.36269685       1.95701797       0.00000000
Si       2.25776142      -3.08914505      -0.05346532       0.00000000
Si       2.63617812      -0.02482596      -2.77988425       0.00000000
Si       3.34880046      -1.38535047       1.24809076       0.00000000
Si      -0.95812893       3.46825503       1.36851783       0.00000000
Si      -0.07869699       2.68195302      -2.77669229       0.00000000
Si      -2.76933258      -2.75065514       0.11990664       0.00000000
