10
Lattice="16.28999089631971 0.0 0.0 0.0 16.28999089631971 0.0 0.0 0.0 34.69518985606464" Properties=species:S:1:pos:R:3:initial_magmoms:R:1 pbc="T T T"
Si       1.96366176       1.26479307       0.52337723       0.00000000
Si       0.60518979      -2.29404155      -0.32086130       0.00000000
Si      -0.56391093       0.58911645      -2.39518377       0.00000000
Si      -1.37152026      -0.16347341       2.28717758       0.00000000
Si       3.05577594      -0.39697753       1.83090089       0.00000000
Si       2.19336705      -2.58651221       1.40647439       0.00000000
Si       2.95373538       1.78621968      -1.77184964       0.00000000
Si      -1.38036573      -3.68695058       0.10117123       0.00000000
Si      -1.44065502      -1.32713231      -3.60896097       0.00000000
Si       1.81819206       2.94575817       2.34380017       0.00000000
