10
Lattice="16.28999089631971 0.0 0.0 0.0 16.28999089631971 0.0 0.0 0.0 34.69518985606464" Properties=species:S:1:pos:R:3:initial_magmoms:R:1 pbc="T T T"
Si       1.09211418      -1.66177059       1.30752366       0.00000000
Si      -1.96366176      -1.26479307      -0.52337723       0.00000000
Si      -0.14546970       1.68096510       1.82042293       0.00000000
Si       0.99007362       0.52142661      -2.29522687       0.00000000
Si       0.96969483      -0.75877191       3.52343728       0.00000000
Si       3.34151883      -1.78010767       0.41065250       0.00000000
Si       1.90996992       1.37902995       3.07201791       0.00000000
Si      -1.35847197      -3.55883462      -0.84423853       0.00000000
Si      -2.52757269      -0.67567662      -2.91856100       0.00000000
Si      -0.21305691       3.82024935       0.92330891       0.00000000
