10
Lattice="16.28999089631971 0.0 0.0 0.0 16.28999089631971 0.0 0.0 0.0 34.69518985606464" Properties=species:S:1:pos:R:3:initial_magmoms:R:1 pbc="T T T"
Si       1.15038351      -1.70075321       1.01896360       0.00000000
Si      -2.04799509       0.44553150       1.10445260       0.00000000
Si       0.94027509       2.13780186      -0.45141937       0.00000000
Si       0.12241935      -0.90299868      -2.21591362       0.00000000
Si      -1.11516453       2.43973701      -1.70301435       0.00000000
Si       1.34193762      -0.88054455       3.19483895       0.00000000
Si      -3.37286079      -1.31512265       0.35840151       0.00000000
Si       3.31920153      -1.58962544       0.15494880       0.00000000
Si      -2.89582443       2.32878582      -0.02792964       0.00000000
Si      -0.96969483       0.75877191      -3.52343728       0.00000000
