10
Lattice="16.28999089631971 0.0 0.0 0.0 16.28999089631971 0.0 0.0 0.0 34.69518985606464" Properties=species:S:1:pos:R:3:initial_magmoms:R:1 pbc="T T T"
Si       2.01062583       0.87027696       0.88007868       0.00000000
Si       0.60157341      -2.12800342      -0.85162861       0.00000000
Si      -1.13306561       1.33174008      -1.61436809       0.00000000
Si      -1.41457147      -1.07654094       1.68195435       0.00000000
Si       1.53358947      -2.77363151       1.26640983       0.00000000
Si      -2.68169957       2.26662318      -0.08056228       0.00000000
Si       2.85845517      -1.01297736       2.01246092       0.00000000
Si      -1.52504048      -3.20233463      -1.01688189       0.00000000
Si       1.28718693       2.77739613       2.21129916       0.00000000
Si      -3.03690302      -2.37740658       0.65497616       0.00000000
