10
Lattice="16.28999089631971 0.0 0.0 0.0 16.28999089631971 0.0 0.0 0.0 34.69518985606464" Properties=species:S:1:pos:R:3:initial_magmoms:R:1 pbc="T T T"
Si       1.35635427      -1.34987085       1.36161349       0.00000000
Si      -1.35630540      -1.35586557      -1.35731128       0.00000000
Si       1.35910728       1.35866745      -1.35710311       0.00000000
Si      -1.35852084       1.35690813       1.36480545       0.00000000
Si       2.71471221       2.71331127       0.00000000       0.00000000
Si      -2.71402803       0.00167787      -2.71486543       0.00000000
Si       0.00192222      -2.71415672      -2.71500421       0.00000000
Si       2.71616202      -2.71515367      -0.00076329       0.00000000
Si       0.00146610       2.71665072      -2.71521238       0.00000000
Si       2.71391400       0.01238040       2.71854312       0.00000000
