10
Lattice="16.28999089631971 0.0 0.0 0.0 16.28999089631971 0.0 0.0 0.0 34.69518985606464" Properties=species:S:1:pos:R:3:initial_magmoms:R:1 pbc="T T T"
Si       1.35852084      -1.35690813      -1.36480545       0.00000000
Si      -1.35938421      -1.34063442       1.38340208       0.00000000
Si      -1.35493704       1.36244673      -1.36733820       0.00000000
Si       1.36704051       1.36886499       1.37146693       0.00000000
Si      -2.70194085       2.70839169      -0.01339235       0.00000000
Si       2.71487511      -2.70677898      -0.00319196       0.00000000
Si      -2.70902700      -2.71370223      -0.00353891       0.00000000
Si       2.71005327       2.72293866      -0.01335766       0.00000000
Si      -2.71099809       0.00221544      -2.72263716       0.00000000
Si       0.00221544      -2.71277370      -2.72211673       0.00000000
