10
Lattice="16.28999089631971 0.0 0.0 0.0 16.28999089631971 0.0 0.0 0.0 34.69518985606464" Properties=species:S:1:pos:R:3:initial_magmoms:R:1 pbc="T T T"
Si       1.35021294      -1.34881200       1.35522957       0.00000000
Si      -1.35687555      -1.35495333      -1.35526426       0.00000000
Si       1.35666378       1.36026387      -1.35467444       0.00000000
Si      -1.35096228       1.35900954       1.36161349       0.00000000
Si       0.00014661      -2.71200807      -2.71143060       0.00000000
Si      -2.71477737      -2.70930393       0.00124903       0.00000000
Si       2.71024875       2.71440270       0.00388586       0.00000000
Si      -2.71474479       0.00255753      -2.71101426       0.00000000
Si       2.71513575       0.00249237      -2.71132652       0.00000000
Si       2.71339272      -2.71534752       0.00378178       0.00000000
