10
Lattice="16.28999089631971 0.0 0.0 0.0 16.28999089631971 0.0 0.0 0.0 34.69518985606464" Properties=species:S:1:pos:R:3:initial_magmoms:R:1 pbc="T T T"
Si       1.76836095       0.02071599      -1.53120367       0.00000000
Si      -1.17979999       1.71780656      -1.11565915       0.00000000
Si       0.63840510       1.00363830       2.04531728       0.00000000
Si      -1.11909205      -2.14338674      -0.02307231       0.00000000
Si       2.36055132      -2.13853232      -0.98496230       0.00000000
Si      -2.80213154       0.41694092      -2.14263734       0.00000000
Si      -1.36878354       2.25827618       2.39820225       0.00000000
Si       0.31889304      -3.14675300      -1.65693911       0.00000000
Si       3.09322665       1.78137014      -0.78515259       0.00000000
Si      -3.32780984      -1.46197604      -0.78695674       0.00000000
