10
Lattice="16.28999089631971 0.0 0.0 0.0 16.28999089631971 0.0 0.0 0.0 34.69518985606464" Properties=species:S:1:pos:R:3:initial_magmoms:R:1 pbc="T T T"
Si       1.35096228      -1.35900954      -1.36161349       0.00000000
Si       1.36065483       1.34359920       1.36893418       0.00000000
Si      -1.36497168       1.35853713      -1.35703372       0.00000000
Si      -1.36179513      -1.38458484       1.36112775       0.00000000
Si      -0.36883818       2.31769233       2.67586801       0.00000000
Si       2.59644681      -0.17405865       2.76808788       0.00000000
Si       2.70117522      -2.70782154      -0.00638392       0.00000000
Si       2.70762606       0.00125433      -2.71628793       0.00000000
Si       2.70989037       2.71937115      -0.00003470       0.00000000
Si      -0.00591327      -2.71396287      -2.71687775       0.00000000
