10
Lattice="16.28999089631971 0.0 0.0 0.0 16.28999089631971 0.0 0.0 0.0 34.69518985606464" Properties=species:S:1:pos:R:3:initial_magmoms:R:1 pbc="T T T"
Si      -1.49944563      -0.74694537      -1.61280680       0.00000000
Si       1.90570194       0.64886328      -1.25291340       0.00000000
Si       0.71420247      -1.79300772       1.39363716       0.00000000
Si      -0.84330072       2.01767940       1.02482709       0.00000000
Si      -0.89497260       1.04984163       3.25104519       0.00000000
Si      -1.27985643       1.02226266      -3.16659705       0.00000000
Si       0.99541674      -3.52590534      -0.32537167       0.00000000
Si       1.11612564       1.19707065      -3.43944018       0.00000000
Si       2.63813292       2.72460024      -0.45013564       0.00000000
Si       0.64909134       3.78028998       0.22499843       0.00000000
