10
Lattice="16.28999089631971 0.0 0.0 0.0 16.28999089631971 0.0 0.0 0.0 34.69518985606464" Properties=species:S:1:pos:R:3:initial_magmoms:R:1 pbc="T T T"
Si      -0.71420247       1.79300772      -1.39363716       0.00000000
Si      -1.38461742      -0.94183893       1.71664956       0.00000000
Si       2.06617473       0.56407383       1.12235532       0.00000000
Si       0.28121427      -1.73289762      -1.71900884       0.00000000
Si       0.35823339      -3.69699921      -0.41321994       0.00000000
Si      -3.12525279       0.90305244       1.84970569       0.00000000
Si      -1.43712009      -3.28574187       1.07131867       0.00000000
Si      -1.60917507       2.84284935       1.85740803       0.00000000
Si       1.19149947       2.44187100      -2.64655056       0.00000000
Si       3.06426303      -1.54846224       1.62970337       0.00000000
