10
Lattice="16.28999089631971 0.0 0.0 0.0 16.28999089631971 0.0 0.0 0.0 34.69518985606464" Properties=species:S:1:pos:R:3:initial_magmoms:R:1 pbc="T T T"
Si       1.35586557       1.35444370      -1.35738067       0.00000000
Si       1.35769005      -1.35765747       1.35703372       0.00000000
Si      -1.35777150       1.35768151       1.35779701       0.00000000
Si      -1.35931905      -1.36166481      -1.35689494       0.00000000
Si       0.00104256      -2.71080261      -2.71365110       0.00000000
Si      -0.00350235       2.71144674       2.71476134       0.00000000
Si       2.71443528      -0.00034209       2.71486543       0.00000000
Si       2.71552671       2.71442781       0.00017348       0.00000000
Si      -2.71491909       2.71512665       0.00003470       0.00000000
Si       2.71502172      -2.71503801       0.00020817       0.00000000
