10
Lattice="16.28999089631971 0.0 0.0 0.0 16.28999089631971 0.0 0.0 0.0 34.69518985606464" Properties=species:S:1:pos:R:3:initial_magmoms:R:1 pbc="T T T"
Si      -1.35672894      -1.35716877      -1.35859500       0.00000000
Si       1.35870003       1.35754344      -1.35894196       0.00000000
Si      -1.35860229       1.36264221       1.35779701       0.00000000
Si       1.36497168      -1.35853713       1.35703372       0.00000000
Si      -2.71396287       0.00006516      -2.71594098       0.00000000
Si       2.71544526       2.71485882      -0.00111025       0.00000000
Si       0.00118917      -2.71498914      -2.71559403       0.00000000
Si      -2.71824714       2.71233387      -0.00204702       0.00000000
Si       0.00100998       2.71520091      -2.71597567       0.00000000
Si       2.71603170       0.00016290      -2.71576750       0.00000000
