10
Lattice="16.28999089631971 0.0 0.0 0.0 16.28999089631971 0.0 0.0 0.0 34.69518985606464" Properties=species:S:1:pos:R:3:initial_magmoms:R:1 pbc="T T T"
Si      -1.35159759      -1.34120457      -1.37733042       0.00000000
Si       1.36503684       1.37340591      -1.37840597       0.00000000
Si       1.00313820      -1.74469158       1.29777430       0.00000000
Si      -1.32753726       1.36423863       1.52547896       0.00000000
Si       2.12421600      -0.45339957       2.95790537       0.00000000
Si      -2.69585002       2.69393987      -0.01505772       0.00000000
Si       2.71378368       2.70555138      -0.01412095       0.00000000
Si      -2.71380974      -2.71770957      -0.00239397       0.00000000
Si       0.00700470      -2.70384678      -2.73512743       0.00000000
Si      -2.71124244       0.00848709      -2.73717445       0.00000000
