10
Lattice="16.28999089631971 0.0 0.0 0.0 16.28999089631971 0.0 0.0 0.0 34.69518985606464" Properties=species:S:1:pos:R:3:initial_magmoms:R:1 pbc="T T T"
Si       0.95500125       1.52932149       1.40057621       0.00000000
Si       1.95903540      -0.93732660      -0.95592241       0.00000000
Si      -1.16802558       1.82910636      -1.08176193       0.00000000
Si      -1.42056945      -1.74886182       0.93073368       0.00000000
Si      -1.34460918      -2.70006750      -1.38097341       0.00000000
Si       0.67618161      -1.95393663      -2.64967313       0.00000000
Si      -0.98575677       2.38736466       2.50124702       0.00000000
Si      -2.28910338       0.53781435      -2.74189300       0.00000000
Si       2.52973926      -2.47233330       0.91789646       0.00000000
Si      -2.57393403       2.67983532       0.77391134       0.00000000
