10
Lattice="16.28999089631971 0.0 0.0 0.0 16.28999089631971 0.0 0.0 0.0 34.69518985606464" Properties=species:S:1:pos:R:3:initial_magmoms:R:1 pbc="T T T"
Si      -0.59219037       2.15924832      -0.54624137       0.00000000
Si       1.58218254      -0.81897975      -1.54692060       0.00000000
Si      -2.04165828      -1.00822068      -0.67197681       0.00000000
Si       0.55749267      -0.51003990       2.37336048       0.00000000
Si      -2.36055132       2.13853232       0.98496230       0.00000000
Si       2.54653425      -1.56572964       1.69822641       0.00000000
Si       1.02452697      -3.09325923      -1.29107813       0.00000000
Si       3.47685615      -0.56505123      -0.21164078       0.00000000
Si      -3.47964337      -0.00485442       0.96188998       0.00000000
Si      -1.37145510      -3.26806722      -1.01823500       0.00000000
