10
Lattice="16.28999089631971 0.0 0.0 0.0 16.28999089631971 0.0 0.0 0.0 34.69518985606464" Properties=species:S:1:pos:R:3:initial_magmoms:R:1 pbc="T T T"
Si      -2.14441560      -1.03526208      -0.54249429       0.00000000
Si       1.05000453      -0.66078756      -2.14215161       0.00000000
Si      -0.19541484       2.44491723       0.42342033       0.00000000
Si       1.15181703       0.42911118       3.18028921       0.00000000
Si      -0.50769414       2.40248178       2.88750879       0.00000000
Si      -1.59645258      -2.84843682      -1.99004781       0.00000000
Si      -3.08491875      -1.77510501       1.51007429       0.00000000
Si      -3.02715441       0.01334151      -2.46485175       0.00000000
Si       3.38835258      -0.37510983      -1.94702575       0.00000000
Si       0.69151050      -2.99260332      -2.46353333       0.00000000
