10
Lattice="16.28999089631971 0.0 0.0 0.0 16.28999089631971 0.0 0.0 0.0 34.69518985606464" Properties=species:S:1:pos:R:3:initial_magmoms:R:1 pbc="T T T"
Si      -1.35180936      -1.35007773       1.36025690       0.00000000
Si      -1.34675946       1.28474343      -1.44494444       0.00000000
Si       1.36270737       1.36143675       1.35800172       0.00000000
Si       1.17279855      -1.48459078      -1.41221298       0.00000000
Si       1.85637582       0.30299400      -2.89321758       0.00000000
Si       0.40907448       2.29377861      -2.70609177       0.00000000
Si      -2.19675537      -0.58766175      -2.76904343       0.00000000
Si      -0.52740504      -2.57163176      -2.67027688       0.00000000
Si      -2.71041165       0.00234576       2.71791514       0.00000000
Si       0.00467523      -2.71052380       2.71815800       0.00000000
