10
Lattice="16.28999089631971 0.0 0.0 0.0 16.28999089631971 0.0 0.0 0.0 34.69518985606464" Properties=species:S:1:pos:R:3:initial_magmoms:R:1 pbc="T T T"
Si      -1.15038351       1.70075321      -1.01896360       0.00000000
Si       0.19155411       0.82020867       2.17587535       0.00000000
Si       2.16881802       0.11112777      -0.86401480       0.00000000
Si      -0.45419778      -2.33866898      -0.32596149       0.00000000
Si       1.48017456      -1.08036422       2.68138455       0.00000000
Si       3.06515898      -1.02220892       0.93985852       0.00000000
Si      -1.02796416       0.79775453      -3.23487722       0.00000000
Si      -3.19837860       2.14628471       0.08548900       0.00000000
Si      -2.34887139      -2.59259750      -1.66124131       0.00000000
Si       2.43542016      -0.91684520      -2.92855322       0.00000000
