10
Lattice="16.28999089631971 0.0 0.0 0.0 16.28999089631971 0.0 0.0 0.0 34.69518985606464" Properties=species:S:1:pos:R:3:initial_magmoms:R:1 pbc="T T T"
Si       1.24535421      -0.01247977      -2.00271156       0.00000000
Si       0.06861348       2.42534154       0.31465085       0.00000000
Si      -2.17939023      -1.12308377      -0.09679963       0.00000000
Si       0.35785872       1.49853828       2.56685567       0.00000000
Si       2.02720905      -0.48543174       2.66562221       0.00000000
Si      -2.49166953      -1.16551922       2.36728882       0.00000000
Si       3.49244568      -0.51575785      -1.20080119       0.00000000
Si       3.13214346      -1.90335848       0.83785461       0.00000000
Si      -3.50953389      -0.08921218      -1.86975952       0.00000000
Si      -2.16565776       3.33246648      -0.66469082       0.00000000
