10
Lattice="16.28999089631971 0.0 0.0 0.0 16.28999089631971 0.0 0.0 0.0 34.69518985606464" Properties=species:S:1:pos:R:3:initial_magmoms:R:1 pbc="T T T"
Si      -1.88522541       0.83338011      -1.26394647       0.00000000
Si       0.82016892      -1.88001261      -1.28167572       0.00000000
Si       1.66281804       1.76839353       0.08573186       0.00000000
Si       0.29453949      -1.18990305       2.11609551       0.00000000
Si       2.18794248      -0.53916642      -2.64741794       0.00000000
Si      -0.54221265       2.18745378      -2.64877105       0.00000000
Si       1.09705005       0.59691447       3.42899692       0.00000000
Si       2.95555986      -1.95121620       1.37781615       0.00000000
Si       3.51769518       0.82143954      -1.26196885       0.00000000
Si       0.81826299       3.51549603      -1.28174512       0.00000000
