10
Lattice="16.28999089631971 0.0 0.0 0.0 16.28999089631971 0.0 0.0 0.0 34.69518985606464" Properties=species:S:1:pos:R:3:initial_magmoms:R:1 pbc="T T T"
Si      -0.93169026       0.75440619      -1.98630073       0.00000000
Si       1.20552516       1.87523964       0.79115486       0.00000000
Si      -2.10776310      -0.18041175       1.09761764       0.00000000
Si       1.52871876      -1.77215652      -0.51640349       0.00000000
Si       2.05669395      -2.20494924       1.72147220       0.00000000
Si       1.03091265       1.69881894      -2.90499517       0.00000000
Si       1.74508254      -0.44795871       3.11351338       0.00000000
Si      -0.60882246       3.21665598       1.50275360       0.00000000
Si      -1.50570099      -1.32194979      -3.01348709       0.00000000
Si       2.05915374       2.90308977      -1.13213937       0.00000000
