10
Lattice="16.28999089631971 0.0 0.0 0.0 16.28999089631971 0.0 0.0 0.0 34.69518985606464" Properties=species:S:1:pos:R:3:initial_magmoms:R:1 pbc="T T T"
Si      -1.71414783      -0.93921624       1.40055335       0.00000000
Si      -1.11377988       0.23871366      -2.12490809       0.00000000
Si       1.03234617       1.73376099       1.37096527       0.00000000
Si       2.35884087      -1.80937917      -1.93266194       0.00000000
Si      -0.20509110      -2.19856356       2.85319666       0.00000000
Si      -3.21354459       1.03030992      -1.36674838       0.00000000
Si       2.50600473       0.51476400       2.86039591       0.00000000
Si       2.92825782      -2.61532692       0.17387224       0.00000000
Si       0.00493587       1.85523552      -3.54342172       0.00000000
Si       2.77050546       2.87454969       0.27469762       0.00000000
