10
Lattice="16.28999089631971 0.0 0.0 0.0 16.28999089631971 0.0 0.0 0.0 34.69518985606464" Properties=species:S:1:pos:R:3:initial_magmoms:R:1 pbc="T T T"
Si       1.35612621       1.35628911      -1.35710311       0.00000000
Si      -1.35847197       1.35777150       1.35665207       0.00000000
Si       1.35799956      -1.35785295       1.35745006       0.00000000
Si      -1.35899325      -1.35956340      -1.35758884       0.00000000
Si      -2.71513575      -0.00249237       2.71132652       0.00000000
Si      -0.00488700       2.71191033       2.71521238       0.00000000
Si      -2.71215468       0.00066789      -2.71687775       0.00000000
Si       2.71445157      -2.71474479      -0.00045104       0.00000000
Si      -2.71498914      -2.71450044      -0.00010409       0.00000000
Si       2.71300176      -0.00052128       2.71670427       0.00000000
