10
Lattice="16.28999089631971 0.0 0.0 0.0 16.28999089631971 0.0 0.0 0.0 34.69518985606464" Properties=species:S:1:pos:R:3:initial_magmoms:R:1 pbc="T T T"
Si      -2.28400461       0.58075479       0.16521859       0.00000000
Si      -0.19728819      -2.35432854      -0.58551635       0.00000000
Si       0.83121354       0.84273057       2.13576769       0.00000000
Si       1.39730733       0.76018914      -2.10756049       0.00000000
Si      -2.94645375      -1.44959823       1.24698052       0.00000000
Si      -2.55300138       1.48366062      -2.09472326       0.00000000
Si       2.94479217      -0.16112439       2.36624797       0.00000000
Si       1.91785428      -3.29988159       0.21431231       0.00000000
Si       3.05347905       2.12998266      -0.97899472       0.00000000
Si       1.28774079      -2.84571639      -2.37183389       0.00000000
