10
Lattice="16.28999089631971 0.0 0.0 0.0 16.28999089631971 0.0 0.0 0.0 34.69518985606464" Properties=species:S:1:pos:R:3:initial_magmoms:R:1 pbc="T T T"
Si       1.63558116       0.88119126      -1.52846275       0.00000000
Si       1.27910709      -1.33276635       1.57231749       0.00000000
Si      -1.65617172      -1.36979352      -1.12856577       0.00000000
Si      -1.56305808       1.72765224       0.78862211       0.00000000
Si      -2.22687558       0.16521318      -3.00238463       0.00000000
Si      -1.94776272       1.11866688       3.03725331       0.00000000
Si      -3.05347905      -2.12998266       0.97899472       0.00000000
Si       2.99084400       0.20066022       2.43876095       0.00000000
Si       3.72749409      -0.05564664      -1.16027719       0.00000000
Si       1.83435174       3.20429187      -1.41667478       0.00000000
