10
Lattice="16.28999089631971 0.0 0.0 0.0 16.28999089631971 0.0 0.0 0.0 34.69518985606464" Properties=species:S:1:pos:R:3:initial_magmoms:R:1 pbc="T T T"
Si       1.35441576       1.35544203       1.35682555       0.00000000
Si       1.35725022      -1.35702216      -1.35800519       0.00000000
Si      -1.35788553       1.35798327      -1.35772762       0.00000000
Si      -1.36283769      -1.36076886       1.35734598       0.00000000
Si      -0.00156384       2.71481902      -2.71382457       0.00000000
Si      -2.71415835       0.00320913       2.71503890       0.00000000
Si       2.71472850       2.71475197      -0.00041634       0.00000000
Si       2.71560816      -2.71415835      -0.00024287       0.00000000
Si       2.71438641      -0.00234576      -2.71562872       0.00000000
Si      -2.71591767       2.71512890      -0.00045104       0.00000000
