10
Lattice="16.28999089631971 0.0 0.0 0.0 16.28999089631971 0.0 0.0 0.0 34.69518985606464" Properties=species:S:1:pos:R:3:initial_magmoms:R:1 pbc="T T T"
Si      -0.89634096       1.13333670      -1.80387332       0.00000000
Si       0.32130396      -2.13021072      -0.90405307       0.00000000
Si       2.08396341       0.79443072       0.74889609       0.00000000
Si      -1.58498442      -0.05815530       1.74152603       0.00000000
Si      -3.06515898       1.02220892      -0.93985852       0.00000000
Si       1.98156447      -0.39374559       2.77703924       0.00000000
Si       2.25386811      -1.49421654      -2.28311824       0.00000000
Si      -0.18357201       0.29076021       3.54321355       0.00000000
Si      -2.87360487       1.84241759       1.23601683       0.00000000
Si       3.60541683      -0.07485255      -0.85617368       0.00000000
