10
Lattice="16.28999089631971 0.0 0.0 0.0 16.28999089631971 0.0 0.0 0.0 34.69518985606464" Properties=species:S:1:pos:R:3:initial_magmoms:R:1 pbc="T T T"
Si       1.40141241       0.34891551       1.80168752       0.00000000
Si      -1.28862045       1.90057289      -0.50550920       0.00000000
Si      -1.25100684      -1.92274128       0.52198942       0.00000000
Si       1.58498442       0.05815530      -1.74152603       0.00000000
Si      -1.48017456       1.08036422      -2.68138455       0.00000000
Si       1.30606704       2.70621602       1.62526238       0.00000000
Si      -0.20961972      -0.24205311       3.45987566       0.00000000
Si      -2.23099695      -1.08436014       2.47373372       0.00000000
Si       0.29108601       3.69135377      -0.35843621       0.00000000
Si       3.56654889      -0.33559029       1.03551322       0.00000000
