10
Lattice="16.28999089631971 0.0 0.0 0.0 16.28999089631971 0.0 0.0 0.0 34.69518985606464" Properties=species:S:1:pos:R:3:initial_magmoms:R:1 pbc="T T T"
Si       1.35656930       1.35721764      -1.35713780       0.00000000
Si       1.35839378      -1.35715248       1.35734598       0.00000000
Si      -1.35816610      -1.35788553      -1.35710311       0.00000000
Si      -1.35850439       1.35808101       1.35762354       0.00000000
Si       2.71445483       0.00307881       2.71264493       0.00000000
Si       2.71388468      -2.71459818       0.00031226       0.00000000
Si      -2.71342923      -0.00105885      -2.71510829       0.00000000
Si       2.71421048       0.00039096      -2.71437970       0.00000000
Si       2.71448741       2.71494027       0.00038165       0.00000000
Si      -0.00183425       2.71314837       2.71725940       0.00000000
