10
Lattice="16.28999089631971 0.0 0.0 0.0 16.28999089631971 0.0 0.0 0.0 34.69518985606464" Properties=species:S:1:pos:R:3:initial_magmoms:R:1 pbc="T T T"
Si       1.00041777      -1.46007270      -1.56027825       0.00000000
Si      -2.33834805      -0.28567773      -0.19512586       0.00000000
Si      -0.17213643       2.12441148      -1.02541691       0.00000000
Si       1.20943476      -0.14118543       2.05114608       0.00000000
Si      -2.19351366       1.28210445      -2.01155884       0.00000000
Si       0.55529352      -2.26538514       2.94225783       0.00000000
Si      -2.69684208      -2.61749349      -0.51650758       0.00000000
Si       3.33536121      -1.07740431      -1.58893650       0.00000000
Si      -3.38835258       0.37510983       1.94702575       0.00000000
Si      -0.15902298       3.93063106       0.46453416       0.00000000
