10
Lattice="16.28999089631971 0.0 0.0 0.0 16.28999089631971 0.0 0.0 0.0 34.69518985606464" Properties=species:S:1:pos:R:3:initial_magmoms:R:1 pbc="T T T"
Si       1.35746199       1.35513089      -1.35786640       0.00000000
Si      -1.35633798       1.35742778       1.35703372       0.00000000
Si      -1.35814617      -1.35855316      -1.35609695       0.00000000
Si       1.35814617      -1.35862022       1.35731128       0.00000000
Si      -0.00177561       2.71391237       2.71198573       0.00000000
Si      -2.71386513       2.71373318      -0.00045104       0.00000000
Si       2.71371852      -0.00345022       2.71451848       0.00000000
Si      -2.71463076       0.00189290      -2.71399805       0.00000000
Si      -2.71482624      -0.00236531       2.71420622       0.00000000
Si       2.71555929       2.71384721      -0.00038165       0.00000000
