10
Lattice="16.28999089631971 0.0 0.0 0.0 16.28999089631971 0.0 0.0 0.0 34.69518985606464" Properties=species:S:1:pos:R:3:initial_magmoms:R:1 pbc="T T T"
Si      -2.06094564      -1.09416672       0.18714596       0.00000000
Si       2.06711955      -0.89072091       0.71517235       0.00000000
Si       0.42885054      -0.54302715      -2.27902421       0.00000000
Si      -0.80770707       2.12735997       0.77200310       0.00000000
Si      -3.07592667      -0.10902897      -1.79655263       0.00000000
Si      -1.36013355       0.47987082      -3.35957181       0.00000000
Si       1.17988470       3.32154729       1.36973217       0.00000000
Si       2.55397878       0.31210011      -2.79702368       0.00000000
Si       1.72385667      -3.23471249       1.09359300       0.00000000
Si       0.30193515      -2.94779672      -2.43074636       0.00000000
