10
Lattice="16.28999089631971 0.0 0.0 0.0 16.28999089631971 0.0 0.0 0.0 34.69518985606464" Properties=species:S:1:pos:R:3:initial_magmoms:R:1 pbc="T T T"
Si      -0.68357727      -1.78758478       1.48100460       0.00000000
Si      -1.44730134       1.99078461       0.18712581       0.00000000
Si      -0.12898422      -0.54299457      -2.50225319       0.00000000
Si       1.98568584       0.89436987       1.35990791       0.00000000
Si      -1.85637582      -0.30299400       2.89321758       0.00000000
Si      -3.20313528       0.98174943       1.44827314       0.00000000
Si      -2.38378086      -2.87462576       0.22294070       0.00000000
Si       0.87680925       2.41730568       2.87159899       0.00000000
Si      -1.70510688       1.03974183      -3.31144955       0.00000000
Si      -2.01671829       2.79673236      -1.91940837       0.00000000
