10
Lattice="16.28999089631971 0.0 0.0 0.0 16.28999089631971 0.0 0.0 0.0 34.69518985606464" Properties=species:S:1:pos:R:3:initial_magmoms:R:1 pbc="T T T"
Si      -1.35760860       1.35651717       1.35699902       0.00000000
Si       1.35686521      -1.35679410       1.35783171       0.00000000
Si       1.35736454       1.35733167      -1.35692963       0.00000000
Si      -1.35809730      -1.35871632      -1.35748476       0.00000000
Si       0.00144981      -2.71032857      -2.71524708       0.00000000
Si      -0.00172674       2.71368594       2.71524708       0.00000000
Si       0.00210141       2.71415835      -2.71493482       0.00000000
Si      -2.71555929      -2.71384721       0.00038165       0.00000000
Si       2.71491976      -2.71451673       0.00020817       0.00000000
Si      -2.71733490       0.00006516       2.71236737       0.00000000
