10
Lattice="16.28999089631971 0.0 0.0 0.0 16.28999089631971 0.0 0.0 0.0 34.69518985606464" Properties=species:S:1:pos:R:3:initial_magmoms:R:1 pbc="T T T"
Si      -0.41876703       0.68404968       2.19388217       0.00000000
Si       2.22629633       0.42199245      -0.67711170       0.00000000
Si      -0.06895557      -2.34955557       0.26246926       0.00000000
Si      -1.91391210       0.49168107      -1.36102367       0.00000000
Si       2.28538016      -1.13072148      -2.46575383       0.00000000
Si      -1.72605582      -1.12414032       2.98240019       0.00000000
Si      -0.97795386       1.32251994      -3.28011978       0.00000000
Si       0.03456738      -2.62664847       2.66188584       0.00000000
Si       1.47967839      -3.28443867      -1.27133655       0.00000000
Si       2.47553333       2.77557165      -0.94357091       0.00000000
