10
Lattice="16.28999089631971 0.0 0.0 0.0 16.28999089631971 0.0 0.0 0.0 34.69518985606464" Properties=species:S:1:pos:R:3:initial_magmoms:R:1 pbc="T T T"
Si       1.70207694       1.32783048       0.91154723       0.00000000
Si      -1.77070671       1.44653571      -0.52119143       0.00000000
Si       1.13464737      -0.62791434      -2.00815871       0.00000000
Si      -0.70522668      -2.12358069       0.95907967       0.00000000
Si      -2.04661044       0.65497203      -2.72163099       0.00000000
Si      -1.04404239      -3.12510618      -1.08835402       0.00000000
Si       3.46270014      -0.17467767       0.59103289       0.00000000
Si       0.51906456       2.31026409       2.63565627       0.00000000
Si      -1.23821919       0.79935030       3.36998037       0.00000000
Si       1.19928609      -3.03021693      -1.81199200       0.00000000
