10
Lattice="16.28999089631971 0.0 0.0 0.0 16.28999089631971 0.0 0.0 0.0 34.69518985606464" Properties=species:S:1:pos:R:3:initial_magmoms:R:1 pbc="T T T"
Si       0.36812142       2.32191144      -0.24054189       0.00000000
Si       0.02228472      -0.36403263      -2.35635983       0.00000000
Si       2.02277245      -0.13504410       1.31241568       0.00000000
Si      -2.15257689       0.63371358       1.06032029       0.00000000
Si       2.16812099      -1.27371510      -2.16886692       0.00000000
Si       3.31900672       0.10461438      -0.60994178       0.00000000
Si      -0.92204658       3.02511816      -2.05697487       0.00000000
Si       2.15934182      -2.39419017       2.07758382       0.00000000
Si      -1.96530705      -1.55821995      -2.95408890       0.00000000
Si      -0.13175352       3.52771353       1.77653349       0.00000000
