10
Lattice="16.28999089631971 0.0 0.0 0.0 16.28999089631971 0.0 0.0 0.0 34.69518985606464" Properties=species:S:1:pos:R:3:initial_magmoms:R:1 pbc="T T T"
Si      -1.35441576      -1.35544203      -1.35682555       0.00000000
Si       1.36031274       1.35930994      -1.35724189       0.00000000
Si      -1.35405738       1.36442872       1.35932360       0.00000000
Si       1.36471104      -1.35738054       1.36286251       0.00000000
Si      -0.02251278       2.71816799       2.70723248       0.00000000
Si      -2.71230129       0.00254124      -2.71455317       0.00000000
Si       0.00283446      -2.71246419      -2.71483073       0.00000000
Si      -2.71265967       2.71556485      -0.00034695       0.00000000
Si       2.71588509       2.71447993      -0.00003470       0.00000000
Si       0.00216657       2.71793016      -2.71455317       0.00000000
