10
Lattice="16.28999089631971 0.0 0.0 0.0 16.28999089631971 0.0 0.0 0.0 34.69518985606464" Properties=species:S:1:pos:R:3:initial_magmoms:R:1 pbc="T T T"
Si       2.09191293      -0.93683790       0.36818556       0.00000000
Si       0.19877058       2.32310061       0.11178796       0.00000000
Si      -1.63558116      -0.88119126       1.52846275       0.00000000
Si       1.63615131      -0.50969781      -1.94369501       0.00000000
Si      -1.48473576       2.70575271      -1.54473480       0.00000000
Si       1.72558341      -3.19153680       0.09242804       0.00000000
Si       0.24558804      -1.98405684      -3.09005942       0.00000000
Si      -0.19012059       2.98963854       2.36087021       0.00000000
Si      -0.35647407      -2.21395761       3.10078024       0.00000000
Si      -2.46207060       0.98002269      -2.94343747       0.00000000
