10
Lattice="16.28999089631971 0.0 0.0 0.0 16.28999089631971 0.0 0.0 0.0 34.69518985606464" Properties=species:S:1:pos:R:3:initial_magmoms:R:1 pbc="T T T"
Si       0.69910164      -2.26776348      -0.12622117       0.00000000
Si       0.50502258       0.62858223      -2.24131052       0.00000000
Si      -0.31214898       1.37098269       2.10697067       0.00000000
Si      -2.52180603       0.50090121      -0.53052444       0.00000000
Si       2.64886803       0.00133578       0.37946150       0.00000000
Si      -2.00347452       2.68183899       0.72342981       0.00000000
Si       2.72722293      -0.22543731      -2.08143499       0.00000000
Si      -1.26478818      -3.29080806       0.52077509       0.00000000
Si      -3.17594727      -1.62329850       0.36058731       0.00000000
Si       0.37115136       3.06134712      -2.37925867       0.00000000
