10
Lattice="16.28999089631971 0.0 0.0 0.0 16.28999089631971 0.0 0.0 0.0 34.69518985606464" Properties=species:S:1:pos:R:3:initial_magmoms:R:1 pbc="T T T"
Si      -1.83462445      -0.80992251       1.18733394       0.00000000
Si      -0.10548524      -0.57836016      -2.32600152       0.00000000
Si       1.80303747      -1.57822407       0.18491995       0.00000000
Si       0.94125738       1.84894758       1.27052264       0.00000000
Si      -0.26364943      -2.01973194       2.68952894       0.00000000
Si       2.03554464      -1.68044382      -2.14322716       0.00000000
Si      -0.24205462       1.68078591      -3.09116967       0.00000000
Si       2.45173785       0.72112572       2.72992111       0.00000000
Si       1.00865399      -3.51730096       1.21570768       0.00000000
Si       3.68875158      -0.59373792       1.28128510       0.00000000
