10
Lattice="16.28999089631971 0.0 0.0 0.0 16.28999089631971 0.0 0.0 0.0 34.69518985606464" Properties=species:S:1:pos:R:3:initial_magmoms:R:1 pbc="T T T"
Si      -1.33924795      -1.35392706       1.39023010       0.00000000
Si       1.37538022       1.36456443       1.38807899       0.00000000
Si       1.19821344      -1.57372803      -1.41882936       0.00000000
Si      -1.42555237       1.40954112      -1.41600864       0.00000000
Si      -2.68654498      -2.70966231       0.00967302       0.00000000
Si       2.70869392      -2.70154989       0.04056911       0.00000000
Si       2.71991773       2.71231758       0.02202799       0.00000000
Si      -2.69886022       2.74548402       0.02544894       0.00000000
Si      -2.69884393       0.00335574       2.74809650       0.00000000
Si       0.01601518      -2.71075374       2.74823528       0.00000000
