10
Lattice="16.28999089631971 0.0 0.0 0.0 16.28999089631971 0.0 0.0 0.0 34.69518985606464" Properties=species:S:1:pos:R:3:initial_magmoms:R:1 pbc="T T T"
Si      -1.34902377      -1.33778367      -1.36754637       0.00000000
Si      -1.74426804       0.90393210       1.28240432       0.00000000
Si       1.36179513       1.38458484      -1.36112775       0.00000000
Si       1.27705455      -1.48059810       1.50906813       0.00000000
Si       1.93745115       0.46439532       2.67565984       0.00000000
Si      -0.19692981       1.98575100       2.71673897       0.00000000
Si      -2.70909705      -2.67999822       0.02636836       0.00000000
Si       2.71995759      -2.67731037       0.01731291       0.00000000
Si      -0.00201996      -2.68372863      -2.72149221       0.00000000
Si      -2.71830904       0.02634093      -2.71687775       0.00000000
