10
Lattice="10.86 0.0 0.0 0.0 10.86 0.0 0.0 0.0 10.86" Properties=species:S:1:pos:R:3:initial_magmoms:R:1 pbc="T T T"
Si       0.99550362      -1.14124482      -1.49879946       0.00000000
Si       0.99550362       1.57375518       1.21620054       0.00000000
Si      -1.71949638      -1.14124482       1.21620054       0.00000000
Si       2.35300362      -2.49874482      -0.14129946       0.00000000
Si       2.35300362       0.21625518       2.57370054       0.00000000
Si      -0.36199638      -2.49874482       2.57370054       0.00000000
Si       2.35300362       0.21625518      -2.85629946       0.00000000
Si       2.35300362       2.93125518      -0.14129946       0.00000000
Si      -0.36199638      -2.49874482      -2.85629946       0.00000000
Si      -0.51842382       2.77309014      -2.60310942       0.00000000
