10
Lattice="10.86 0.0 0.0 0.0 10.86 0.0 0.0 0.0 10.86" Properties=species:S:1:pos:R:3:initial_magmoms:R:1 pbc="T T T"
Si       1.43796174      -1.45073310      -1.12206606       0.00000000
Si       1.43796174       1.26426690       1.59293394       0.00000000
Si      -1.27703826      -1.45073310       1.59293394       0.00000000
Si      -2.60424972      -0.07954950      -2.53256286       0.00000000
Si       2.79546174      -0.09323310      -2.47956606       0.00000000
Si       0.08046174      -2.80823310      -2.47956606       0.00000000
Si      -0.15972888       2.66699880       2.69200938       0.00000000
Si       2.79546174       2.62176690       0.23543394       0.00000000
Si      -2.63453826      -2.80823310       0.23543394       0.00000000
Si       0.30399312       2.84887122      -2.67347136       0.00000000
