10
Lattice="10.86 0.0 0.0 0.0 10.86 0.0 0.0 0.0 10.86" Properties=species:S:1:pos:R:3:initial_magmoms:R:1 pbc="T T T"
Si       1.35750000       1.35750000       1.35750000       0.00000000
Si      -1.35750000      -1.35750000       1.35750000       0.00000000
Si      -1.35750000       1.35750000      -1.35750000       0.00000000
Si       1.35750000      -1.35750000      -1.35750000       0.00000000
Si      -2.46786984      -0.00220458      -2.62639326       0.00000000
Si      -2.61966006       0.02993016       2.66458788       0.00000000
Si      -0.13583688       2.53489776      -2.78592666       0.00000000
Si       0.03028854      -2.70131640       2.66200320       0.00000000
Si       0.03398094      -2.69559318      -2.69149896       0.00000000
Si       2.71500000       2.71500000       0.00000000       0.00000000
