10
Lattice="10.86 0.0 0.0 0.0 10.86 0.0 0.0 0.0 10.86" Properties=species:S:1:pos:R:3:initial_magmoms:R:1 pbc="T T T"
Si      -1.17028446       1.38685458      -1.30354752       0.00000000
Si       1.54471554      -1.32814542      -1.30354752       0.00000000
Si       1.54471554       1.38685458       1.41145248       0.00000000
Si      -0.05297508      -2.64041352       2.51052792       0.00000000
Si      -2.66070000       0.28345686      -2.56688046       0.00000000
Si      -2.52778446       2.74435458       0.05395248       0.00000000
Si       0.41074692      -2.45854110      -2.85495282       0.00000000
Si      -2.66362134      -0.15074766       2.69802582       0.00000000
Si       0.18721554       2.74435458      -2.66104752       0.00000000
Si       0.18721554       2.74435458       2.76895248       0.00000000
