10
Lattice="16.28999089631971 0.0 0.0 0.0 16.28999089631971 0.0 0.0 0.0 34.25627252547053" Properties=species:S:1:pos:R:3:initial_magmoms:R:1 pbc="T T T"
Si      -1.83459609      -0.45856350       1.29437398       0.00000000
Si      -0.45276426      -1.88796213      -1.29992350       0.00000000
Si       1.91360259      -0.77509449       1.12384616       0.00000000
Si      -0.58373586       2.10580830      -0.87326139       0.00000000
Si      -1.09590975      -2.96947152       0.74747228       0.00000000
Si       2.91418326      -0.19383471      -1.70829275       0.00000000
Si      -0.85700061       0.11373678       3.35647192       0.00000000
Si       2.64637566       1.58188932       1.66372532       0.00000000
Si       1.69715736      -2.11261752      -2.36224536       0.00000000
Si      -3.50294458       0.82207485       0.15586613       0.00000000
