10
Lattice="16.28999089631971 0.0 0.0 0.0 16.28999089631971 0.0 0.0 0.0 34.25627252547053" Properties=species:S:1:pos:R:3:initial_magmoms:R:1 pbc="T T T"
Si       1.40714649      -1.15090479      -1.44236116       0.00000000
Si       1.34752509       1.19604438       1.53067388       0.00000000
Si      -0.62555229      -1.86838318       1.41430526       0.00000000
Si       0.00511506       1.98228123      -1.70603184       0.00000000
Si      -2.34984879       0.76740561      -1.26272117       0.00000000
Si      -2.17160361      -0.61142886       2.66788000       0.00000000
Si      -1.96050150       1.83858714       2.36433499       0.00000000
Si       1.25802783      -0.08995338       3.49725907       0.00000000
Si       3.28155534       0.39967515      -1.75635433       0.00000000
Si       0.17731665       3.08358297       2.19819198       0.00000000
