10
Lattice="16.28999089631971 0.0 0.0 0.0 16.28999089631971 0.0 0.0 0.0 34.25627252547053" Properties=species:S:1:pos:R:3:initial_magmoms:R:1 pbc="T T T"
Si      -1.70343553      -0.99417237       1.18900163       0.00000000
Si       1.27532781      -1.43849841      -1.31766826       0.00000000
Si      -1.42303738       1.29851223      -1.34500478       0.00000000
Si       2.05778538       0.63064177       1.72148143       0.00000000
Si       0.08351883      -0.33151146       3.07395408       0.00000000
Si       2.67965613       2.50328153       0.22842095       0.00000000
Si      -3.48916229       0.64134268       1.16707760       0.00000000
Si       2.63168208      -0.06561312      -2.68795418       0.00000000
Si      -2.71779086       2.62128629       0.04059371       0.00000000
Si      -0.08488719       2.65104812      -2.69326391       0.00000000
