10
Lattice="16.28999089631971 0.0 0.0 0.0 16.28999089631971 0.0 0.0 0.0 34.25627252547053" Properties=species:S:1:pos:R:3:initial_magmoms:R:1 pbc="T T T"
Si       1.30280904      -1.41740919       1.33243272       0.00000000
Si       1.37559276       1.33636644      -1.37227279       0.00000000
Si      -1.34429967      -1.37590227      -1.36949803       0.00000000
Si      -1.31416317       1.43944956       1.44078537       0.00000000
Si       0.28386954       2.45500074       2.87160216       0.00000000
Si      -2.70904329       2.70497079       0.00630316       0.00000000
Si       0.01314603       2.69736336      -2.72974686       0.00000000
Si       2.73595437       2.69234604       0.00537824       0.00000000
Si      -2.70269019      -0.01840770      -2.73053475       0.00000000
Si      -2.70236439      -2.74779720       0.02432197       0.00000000
