10
Lattice="16.28999089631971 0.0 0.0 0.0 16.28999089631971 0.0 0.0 0.0 34.25627252547053" Properties=species:S:1:pos:R:3:initial_magmoms:R:1 pbc="T T T"
Si       1.59982461      -0.75616551      -1.67663994       0.00000000
Si      -0.00511506      -1.98228123       1.70603184       0.00000000
Si      -1.62816921       1.70468334      -1.18334934       0.00000000
Si      -2.35496385      -1.21487562       0.44331067       0.00000000
Si       1.40203143      -3.13318602       0.26367068       0.00000000
Si       1.34241003      -0.78623685       3.23670572       0.00000000
Si       3.27644028      -1.58260608      -0.05032249       0.00000000
Si      -3.11653764       0.35313462       2.09504629       0.00000000
Si       0.32733126      -2.34264861      -2.95429685       0.00000000
Si      -3.15740925       2.31342435       0.70516576       0.00000000
