10
Lattice="16.28999089631971 0.0 0.0 0.0 16.28999089631971 0.0 0.0 0.0 34.25627252547053" Properties=species:S:1:pos:R:3:initial_magmoms:R:1 pbc="T T T"
Si       1.32414894       1.23395121      -1.49124489       0.00000000
Si      -1.27249335      -1.58648310      -1.27765691       0.00000000
Si      -1.59982461       0.75616551       1.67663994       0.00000000
Si       1.67661567      -0.82644057       1.62631745       0.00000000
Si      -0.19779318      -2.37702051       1.94031062       0.00000000
Si       3.12246720       2.06275383      -0.19967992       0.00000000
Si       0.02133990       2.65136040      -2.82367761       0.00000000
Si      -2.68102449      -0.09643680      -2.79935564       0.00000000
Si      -1.60493967      -1.22611572       3.38267178       0.00000000
Si       2.73662226      -0.09679518      -2.83320086       0.00000000
