10
Lattice="16.28999089631971 0.0 0.0 0.0 16.28999089631971 0.0 0.0 0.0 34.25627252547053" Properties=species:S:1:pos:R:3:initial_magmoms:R:1 pbc="T T T"
Si       0.16834086       0.25067052       2.28835454       0.00000000
Si       1.17020844      -1.88753859      -0.66751810       0.00000000
Si      -2.13781815      -1.24499583       0.16614301       0.00000000
Si       0.61680456       2.30047380      -0.68940787       0.00000000
Si       1.08071118      -3.17353635       1.29906709       0.00000000
Si      -1.85520294       1.21064022       2.93086555       0.00000000
Si       0.52409817      -1.86209361       3.15688856       0.00000000
Si       1.55351214       2.05425045       2.72453990       0.00000000
Si       0.24855282       3.49568739       1.34503904       0.00000000
Si      -0.17731665      -3.08358297      -2.19819198       0.00000000
