10
Lattice="16.28999089631971 0.0 0.0 0.0 16.28999089631971 0.0 0.0 0.0 34.25627252547053" Properties=species:S:1:pos:R:3:initial_magmoms:R:1 pbc="T T T"
Si      -0.35575731       2.11276413      -0.86853402       0.00000000
Si      -1.70351046      -1.13409351       1.09089161       0.00000000
Si       0.55661301      -1.31144274      -1.85782147       0.00000000
Si       1.47791025       0.53146125       1.76241769       0.00000000
Si       2.79862200      -1.51032735      -1.42187590       0.00000000
Si      -0.39675924      -2.77385631       2.15252834       0.00000000
Si       1.16465355      -1.28901141       3.19333725       0.00000000
Si       0.48288447       2.46438378       2.67651258       0.00000000
Si      -0.52409817       1.86209361      -3.15688856       0.00000000
Si      -2.68495038       0.45458874       2.57144853       0.00000000
