10
Lattice="16.28999089631971 0.0 0.0 0.0 16.28999089631971 0.0 0.0 0.0 34.25627252547053" Properties=species:S:1:pos:R:3:initial_magmoms:R:1 pbc="T T T"
Si       1.36127385       1.34947989      -1.34995824       0.00000000
Si      -1.35601218       1.35738054       1.35716576       0.00000000
Si      -1.35374787      -1.35198855      -1.36804214       0.00000000
Si       1.35834165      -1.35900954       1.35795366       0.00000000
Si      -0.00115659       2.66813910      -2.68313090       0.00000000
Si       2.68754049      -0.00760743      -2.70736722       0.00000000
Si       0.02746494      -2.52675819      -2.85965357       0.00000000
Si      -2.71134018       2.71611315      -0.00455609       0.00000000
Si      -2.71371852      -0.00001629       2.71457132       0.00000000
Si       0.00130320      -2.71467963       2.71450281       0.00000000
