10
Lattice="16.28999089631971 0.0 0.0 0.0 16.28999089631971 0.0 0.0 0.0 34.25627252547053" Properties=species:S:1:pos:R:3:initial_magmoms:R:1 pbc="T T T"
Si       1.35143469      -1.35443205      -1.35887858       0.00000000
Si      -1.36244673       1.36099692      -1.35747407       0.00000000
Si      -1.37559276      -1.33636644       1.37227279       0.00000000
Si       1.36036161       1.35597960       1.37765103       0.00000000
Si      -0.06076170       2.65626369       2.74505942       0.00000000
Si       2.71137276      -2.70961344       0.00054810       0.00000000
Si       2.70990666       0.00338832      -2.71577029       0.00000000
Si      -0.00509877      -2.71163340      -2.71614711       0.00000000
Si       2.71191033       2.71806795      -0.00198686       0.00000000
Si      -2.71989243      -2.71226871       0.00277476       0.00000000
