10
Lattice="16.28999089631971 0.0 0.0 0.0 16.28999089631971 0.0 0.0 0.0 34.25627252547053" Properties=species:S:1:pos:R:3:initial_magmoms:R:1 pbc="T T T"
Si      -1.34952876      -1.36467846      -1.37504755       0.00000000
Si       1.35993807       1.35268902      -1.37802784       0.00000000
Si       1.39488012      -1.26552123       1.43448221       0.00000000
Si      -1.33566597       1.34247519       1.56376546       0.00000000
Si      -2.69193879       2.69713530       0.00763915       0.00000000
Si       2.70904329      -2.70497079      -0.00630316       0.00000000
Si       2.71513575       2.71652040      -0.00541249       0.00000000
Si      -2.72023452      -2.71826343      -0.01229801       0.00000000
Si       0.00615762       2.70692559      -2.73680365       0.00000000
Si      -2.70850898      -0.00741195      -2.73666663       0.00000000
