10
Lattice="16.28999089631971 0.0 0.0 0.0 16.28999089631971 0.0 0.0 0.0 34.25627252547053" Properties=species:S:1:pos:R:3:initial_magmoms:R:1 pbc="T T T"
Si      -0.76157379       1.56801024       1.65173562       0.00000000
Si      -1.51661692       0.31583052      -2.01344780       0.00000000
Si      -1.13399577      -2.21015227       0.65038995       0.00000000
Si       2.35496385       1.21487562      -0.44331067       0.00000000
Si       2.34984879      -0.76740561       1.26272117       0.00000000
Si       0.72679464       2.91955896      -1.62666001       0.00000000
Si      -2.98571984       0.75430845       1.58250365       0.00000000
Si      -0.80244540       3.52829997       0.26185509       0.00000000
Si      -3.64518791       0.33399387      -0.66991604       0.00000000
Si       0.38934729       1.07118153       3.62705616       0.00000000
