10
Lattice="16.28999089631971 0.0 0.0 0.0 16.28999089631971 0.0 0.0 0.0 34.25627252547053" Properties=species:S:1:pos:R:3:initial_magmoms:R:1 pbc="T T T"
Si      -1.64248812       1.50161220      -0.76853990       0.00000000
Si       1.92477753       0.75108303      -1.16550181       0.00000000
Si      -0.56312901      -2.17624626      -0.76535407       0.00000000
Si       0.15410340       0.83913048       2.52825135       0.00000000
Si      -0.42546222       3.42039501      -0.11458730       0.00000000
Si      -2.88328113      -2.03460471      -0.47712163       0.00000000
Si       3.75890121      -0.23087817      -0.10263185       0.00000000
Si      -1.98873207       0.99426015      -3.05295497       0.00000000
Si       1.85601744       3.12725646      -1.21733158       0.00000000
Si       1.77694578       0.21352932      -3.44926601       0.00000000
