10
Lattice="16.28999089631971 0.0 0.0 0.0 16.28999089631971 0.0 0.0 0.0 34.25627252547053" Properties=species:S:1:pos:R:3:initial_magmoms:R:1 pbc="T T T"
Si       1.35830907       0.60975099       1.82890916       0.00000000
Si       1.15496100       1.49949354      -1.44736258       0.00000000
Si       0.42828039      -2.05685685      -1.18824799       0.00000000
Si      -2.24148771      -0.51996051       0.82115757       0.00000000
Si      -0.61181982       1.99579120      -2.87211601       0.00000000
Si      -1.62852759      -2.12113719      -2.45929344       0.00000000
Si       1.61300322      -1.42506549       3.10252382       0.00000000
Si      -3.41982486      -1.38339567      -1.02899049       0.00000000
Si       3.42081855       1.54765004       0.91464299       0.00000000
Si      -2.04292890      -2.55500505       2.12793233       0.00000000
