10
Lattice="16.28999089631971 0.0 0.0 0.0 16.28999089631971 0.0 0.0 0.0 34.25627252547053" Properties=species:S:1:pos:R:3:initial_magmoms:R:1 pbc="T T T"
Si      -1.13627637      -1.55963492       1.31907260       0.00000000
Si       1.56063087       1.23352246       1.27846519       0.00000000
Si       1.41134931      -0.32633531      -1.87646532       0.00000000
Si      -1.80359622       0.85138023      -1.34429383       0.00000000
Si      -0.03331305       1.50002523      -2.72948124       0.00000000
Si      -2.49903261      -0.16525979       2.71934305       0.00000000
Si       0.19025091       2.57084838       2.69719293       0.00000000
Si      -2.42229042      -3.08913560      -0.03875230       0.00000000
Si      -2.86674678       2.69246952      -0.26172650       0.00000000
Si       3.27899781       2.18562246      -0.14576895       0.00000000
