10
Lattice="16.28999089631971 0.0 0.0 0.0 16.28999089631971 0.0 0.0 0.0 34.25627252547053" Properties=species:S:1:pos:R:3:initial_magmoms:R:1 pbc="T T T"
Si       1.35560493       1.35792426       1.35696023       0.00000000
Si       1.35729909      -1.35747769      -1.35740556       0.00000000
Si      -1.35746199       1.35759520      -1.35771386       0.00000000
Si      -1.35762489      -1.35814558       1.35778238       0.00000000
Si      -0.00065160       2.71501321       2.71169379       0.00000000
Si       2.71437012      -0.00172729      -2.71433153       0.00000000
Si      -2.71277370       0.00010080      -2.71594157       0.00000000
Si      -0.00086337      -2.71375051      -2.71508517       0.00000000
Si       2.71423980       2.71520869      -0.00013703       0.00000000
Si      -2.71202436      -0.00182722       2.71744885       0.00000000
