10
Lattice="16.28999089631971 0.0 0.0 0.0 16.28999089631971 0.0 0.0 0.0 34.25627252547053" Properties=species:S:1:pos:R:3:initial_magmoms:R:1 pbc="T T T"
Si      -1.35654975       1.35697329      -1.35730279       0.00000000
Si       1.35705474       1.35702216       1.35829622       0.00000000
Si      -1.35863487      -1.35728443       1.35709725       0.00000000
Si       1.35830907      -1.35801748      -1.35730279       0.00000000
Si      -2.71489140      -0.00019548       2.71183082       0.00000000
Si      -2.71396287       2.71443528      -0.00047959       0.00000000
Si      -2.71350675       0.00089595      -2.71546198       0.00000000
Si       2.71394658      -0.00190593      -2.71515368       0.00000000
Si      -2.71423980      -2.71520869       0.00013703       0.00000000
Si       0.00037467       2.71577106      -2.71474260       0.00000000
