10
Lattice="16.28999089631971 0.0 0.0 0.0 16.28999089631971 0.0 0.0 0.0 34.25627252547053" Properties=species:S:1:pos:R:3:initial_magmoms:R:1 pbc="T T T"
Si      -1.35625653       1.35708895       1.35473357       0.00000000
Si      -1.35560493      -1.35792426      -1.35696023       0.00000000
Si       1.35863487       1.35728443      -1.35709725       0.00000000
Si       1.35993807      -1.35961783       1.36346892       0.00000000
Si      -0.01053963       2.69883109       2.72131981       0.00000000
Si      -2.71218726       2.71368757       0.00020554       0.00000000
Si      -2.71306692      -0.00032906      -2.71467409       0.00000000
Si       0.00208512       2.71425772      -2.71440004       0.00000000
Si      -2.71322982      -2.71606984       0.00082215       0.00000000
Si       0.00169416      -2.71540195      -2.71436578       0.00000000
