10
Lattice="16.28999089631971 0.0 0.0 0.0 16.28999089631971 0.0 0.0 0.0 34.25627252547053" Properties=species:S:1:pos:R:3:initial_magmoms:R:1 pbc="T T T"
Si       1.62549765      -1.60199118      -0.52901991       0.00000000
Si      -2.23946775      -0.67491099      -0.25130416       0.00000000
Si      -0.15165990       0.10637370       2.37420081       0.00000000
Si       0.18184527       1.74368160      -1.62624893       0.00000000
Si      -1.89943029       2.79477756      -1.09870204       0.00000000
Si      -2.17248327       1.20246264       2.60943876       0.00000000
Si       3.58063974      -0.40558842      -0.18292860       0.00000000
Si      -1.69147215       3.03023322       1.26285819       0.00000000
Si       3.17358522       0.67882059       1.93205485       0.00000000
Si       2.32367076       2.69498502      -1.28139085       0.00000000
