10
Lattice="16.28999089631971 0.0 0.0 0.0 16.28999089631971 0.0 0.0 0.0 34.25627252547053" Properties=species:S:1:pos:R:3:initial_magmoms:R:1 pbc="T T T"
Si       0.25278822       2.20967823       0.63291924       0.00000000
Si       1.92735135      -0.96865457      -0.98086040       0.00000000
Si       0.05015691      -1.03633952       2.18822340       0.00000000
Si      -1.49019291      -0.18937532      -1.92112709       0.00000000
Si      -0.91430883       2.28997164       2.67517659       0.00000000
Si      -3.27311712       0.21412879       1.58103063       0.00000000
Si      -0.26226900      -3.30630215       1.61333431       0.00000000
Si      -3.10096440      -1.77406475      -1.37425965       0.00000000
Si       2.49225597       2.88458922       0.88422340       0.00000000
Si       3.25694115      -2.07463154       0.63538570       0.00000000
