10
Lattice="16.28999089631971 0.0 0.0 0.0 16.28999089631971 0.0 0.0 0.0 34.25627252547053" Properties=species:S:1:pos:R:3:initial_magmoms:R:1 pbc="T T T"
Si      -2.02082337       1.09608894       0.23523795       0.00000000
Si       1.78870716       0.56495349       1.37247833       0.00000000
Si       0.15165990      -0.10637370      -2.37420081       0.00000000
Si      -0.06304230      -2.17878098       0.96342395       0.00000000
Si      -0.94568337      -0.00649971       3.12047412       0.00000000
Si       1.90034253      -1.63491327       2.15335049       0.00000000
Si      -3.25490490      -0.70099128      -0.58324762       0.00000000
Si       3.32524512       0.57244689      -0.44214596       0.00000000
Si      -2.08780785      -0.78128469      -2.62550496       0.00000000
Si      -1.53981225       2.92385952      -1.11134261       0.00000000
