10
Lattice="16.28999089631971 0.0 0.0 0.0 16.28999089631971 0.0 0.0 0.0 34.25627252547053" Properties=species:S:1:pos:R:3:initial_magmoms:R:1 pbc="T T T"
Si      -1.55408229       1.58253929      -0.71140041       0.00000000
Si       1.79191629       0.20205139       1.50611212       0.00000000
Si      -1.44352206      -1.28704914       1.40060274       0.00000000
Si       1.31084001      -0.20852340      -2.14944528       0.00000000
Si       2.76420123      -1.79428716       0.64257952       0.00000000
Si       2.42290944       2.32420670       0.74339579       0.00000000
Si       2.01934098      -2.37996153      -1.54660306       0.00000000
Si       2.38910769       2.05571492      -1.62289182       0.00000000
Si      -3.11549508       0.09769439      -1.75220932       0.00000000
Si      -2.56251474       2.36517605       1.24042032       0.00000000
