10
Lattice="16.28999089631971 0.0 0.0 0.0 16.28999089631971 0.0 0.0 0.0 34.25627252547053" Properties=species:S:1:pos:R:3:initial_magmoms:R:1 pbc="T T T"
Si      -1.34571690      -1.34174214      -1.36658624       0.00000000
Si      -1.41247332       1.33074639       1.34195597       0.00000000
Si       1.37168316       1.37490858      -1.36220144       0.00000000
Si       1.31061195      -1.32709743       1.49008018       0.00000000
Si       0.38584494       2.15954901       2.63352093       0.00000000
Si       2.14355223       0.52315335       2.68689224       0.00000000
Si      -2.68289784      -2.70023366       0.01976588       0.00000000
Si       0.01053963      -2.69883109      -2.72131981       0.00000000
Si       2.72824920      -2.69260831       0.02702821       0.00000000
Si      -2.70164763       0.01485648      -2.72111427       0.00000000
