10
Lattice="16.28999089631971 0.0 0.0 0.0 16.28999089631971 0.0 0.0 0.0 34.25627252547053" Properties=species:S:1:pos:R:3:initial_magmoms:R:1 pbc="T T T"
Si       1.27156482      -1.35425286       1.43026869       0.00000000
Si       1.36109466       1.34594496      -1.35771386       0.00000000
Si      -1.34996859      -1.36836000      -1.35524741       0.00000000
Si      -1.30508964       1.28840868       1.50833878       0.00000000
Si       0.78755634       2.07075222       2.63341817       0.00000000
Si      -0.57809952      -2.22011523       2.69384626       0.00000000
Si      -2.33580681      -0.58371957       2.64047496       0.00000000
Si       2.34681885       0.27114705       2.71991530       0.00000000
Si      -2.70097974       2.69723304       0.02185551       0.00000000
Si       0.00485442       2.70143586      -2.71501665       0.00000000
