10
Lattice="16.28999089631971 0.0 0.0 0.0 16.28999089631971 0.0 0.0 0.0 34.25627252547053" Properties=species:S:1:pos:R:3:initial_magmoms:R:1 pbc="T T T"
Si      -1.79831826      -0.82880262      -1.29156496       0.00000000
Si      -1.28313072       1.52275662       1.33308359       0.00000000
Si       1.75770729      -1.63639566       0.05337130       0.00000000
Si       1.03071717       1.87212825      -1.13213618       0.00000000
Si      -0.38584494      -2.15954901      -2.63352093       0.00000000
Si       2.33580681       0.58371957      -2.64047496       0.00000000
Si      -1.44585153      -2.88919440       1.82599737       0.00000000
Si      -3.12246720      -2.06275383       0.19967992       0.00000000
Si       0.92476701      -3.48664644      -1.14344076       0.00000000
Si      -0.28349487       1.75716972       3.42991120       0.00000000
