10
Lattice="16.28999089631971 0.0 0.0 0.0 16.28999089631971 0.0 0.0 0.0 34.25627252547053" Properties=species:S:1:pos:R:3:initial_magmoms:R:1 pbc="T T T"
Si      -1.11881349       1.89918594       0.86788315       0.00000000
Si       2.27265048      -0.00605988       0.78535974       0.00000000
Si      -0.60274629      -2.32876953       0.10568066       0.00000000
Si      -0.97648776       0.38871198      -2.21316198       0.00000000
Si      -3.28901616       1.22551299       0.34694772       0.00000000
Si       3.35158605       0.86596011      -1.08924731       0.00000000
Si       0.16246017      -1.22807052      -3.42021667       0.00000000
Si      -0.31855095      -3.05584110      -2.07363610       0.00000000
Si       2.35595754      -0.27774450      -2.97241843       0.00000000
Si      -3.32184051       0.57375009      -1.90259444       0.00000000
