10
Lattice="16.28999089631971 0.0 0.0 0.0 16.28999089631971 0.0 0.0 0.0 34.25627252547053" Properties=species:S:1:pos:R:3:initial_magmoms:R:1 pbc="T T T"
Si      -2.20878621      -0.82822270       0.13339400       0.00000000
Si       0.11442911       2.02898629      -1.20558167       0.00000000
Si       0.91832106      -2.06300374      -0.73048116       0.00000000
Si       1.82807846       1.13090230       1.03382063       0.00000000
Si      -1.29651363      -2.34335464       1.75172973       0.00000000
Si      -0.04784210       1.32305914      -3.41353670       0.00000000
Si      -3.09444093       1.64913607       1.07746314       0.00000000
Si       3.67026569      -0.36887728       0.55704156       0.00000000
Si      -1.93056930       3.16581652      -0.63017874       0.00000000
Si      -2.86750494      -1.19658751      -2.12296516       0.00000000
