10
Lattice="16.28999089631971 0.0 0.0 0.0 16.28999089631971 0.0 0.0 0.0 34.25627252547053" Properties=species:S:1:pos:R:3:initial_magmoms:R:1 pbc="T T T"
Si       1.35189081       1.35609363      -1.33679697       0.00000000
Si       1.35448092      -1.35632169       1.35733704       0.00000000
Si      -1.35985662       1.35646830       1.35672043       0.00000000
Si      -1.36660068      -1.37865528      -1.36423626       0.00000000
Si       2.59069644      -0.03873762      -2.70926160       0.00000000
Si      -0.02710656       2.68597665      -2.65307443       0.00000000
Si       2.71101438       2.71529865       0.00243220       0.00000000
Si       2.71246419       0.00034209       2.71539347       0.00000000
Si      -0.00232947      -2.71489140       2.71484537       0.00000000
Si       2.71342530      -2.71635750      -0.00383670       0.00000000
