10
Lattice="16.28999089631971 0.0 0.0 0.0 16.28999089631971 0.0 0.0 0.0 34.25627252547053" Properties=species:S:1:pos:R:3:initial_magmoms:R:1 pbc="T T T"
Si      -1.35703845      -1.35567009       1.35654915       0.00000000
Si       1.35814617      -1.35448092      -1.35668618       0.00000000
Si       1.35773892       1.35930276       1.35672043       0.00000000
Si      -1.35834165       1.35900954      -1.35795366       0.00000000
Si       0.00293220       2.70848943      -2.70791190       0.00000000
Si       0.00092853      -2.71349046       2.71354363       0.00000000
Si       2.71526607      -2.71215468      -0.00071938       0.00000000
Si      -2.71477737      -2.71353933      -0.00061661       0.00000000
Si      -2.71466334       0.00171045       2.71398896       0.00000000
Si       2.71593396       0.00153126       2.71392045       0.00000000
