10
Lattice="16.28999089631971 0.0 0.0 0.0 16.28999089631971 0.0 0.0 0.0 34.25627252547053" Properties=species:S:1:pos:R:3:initial_magmoms:R:1 pbc="T T T"
Si       1.35773892       1.35637056      -1.35802217       0.00000000
Si      -1.35742941       1.35795069       1.35699448       0.00000000
Si       1.35819504      -1.35777150       1.35720002       0.00000000
Si      -1.35773892      -1.35930276      -1.35672043       0.00000000
Si       0.00040725      -2.71378368      -2.71340661       0.00000000
Si       0.00122175       2.71362078       2.71446855       0.00000000
Si       2.71448415      -0.00097740       2.71374917       0.00000000
Si      -2.71448415       2.71497285      -0.00013703       0.00000000
Si      -2.71415835      -0.00016290       2.71549624       0.00000000
Si      -0.00027693      -2.71559187       2.71409173       0.00000000
