10
Lattice="16.28999089631971 0.0 0.0 0.0 16.28999089631971 0.0 0.0 0.0 34.25627252547053" Properties=species:S:1:pos:R:3:initial_magmoms:R:1 pbc="T T T"
Si       0.02691108      -0.18296928      -2.31051836       0.00000000
Si       1.88779923      -0.70108902       1.30961803       0.00000000
Si      -1.90019592      -0.79762356       1.26844197       0.00000000
Si      -2.31039441       1.09633329       2.67870498       0.00000000
Si      -3.55387527      -1.43751105      -0.59335323       0.00000000
Si       1.92547800      -3.05414694       1.44897263       0.00000000
Si       1.90874817       0.45651096       3.39428466       0.00000000
Si       1.19757564       1.36303317      -3.61873188       0.00000000
Si       4.00128012      -0.60810570       0.08899785       0.00000000
Si      -1.46948832      -2.93457834       2.38389534       0.00000000
