10
Lattice="16.28999089631971 0.0 0.0 0.0 16.28999089631971 0.0 0.0 0.0 34.25627252547053" Properties=species:S:1:pos:R:3:initial_magmoms:R:1 pbc="T T T"
Si       1.32475167      -1.29251376       1.40367896       0.00000000
Si       1.13627637       1.55963492      -1.31907260       0.00000000
Si      -1.36275624       1.39437513       1.40027046       0.00000000
Si      -1.28601405      -1.52950068      -1.35782489       0.00000000
Si      -0.66731985       2.41101515      -2.66336643       0.00000000
Si       2.65614966      -2.68488522       0.09521194       0.00000000
Si      -0.03510495      -2.65572612       2.74599119       0.00000000
Si      -2.73543309       2.66770646       0.03184122       0.00000000
Si       2.67999822       0.06237441       2.75195179       0.00000000
Si      -2.75157648      -2.70291825       0.06522398       0.00000000
