10
Lattice="16.28999089631971 0.0 0.0 0.0 16.28999089631971 0.0 0.0 0.0 34.25627252547053" Properties=species:S:1:pos:R:3:initial_magmoms:R:1 pbc="T T T"
Si       1.35759231       1.35672894       1.35750833       0.00000000
Si       1.35754344      -1.35733167      -1.35713151       0.00000000
Si      -1.35780408       1.35767376      -1.35713151       0.00000000
Si      -1.35679410      -1.35878148       1.35730279       0.00000000
Si      -0.00073305       2.71342416      -2.71405748       0.00000000
Si       2.71480995      -0.00021177      -2.71374917       0.00000000
Si       0.00218286      -2.71549413       2.71381768       0.00000000
Si       2.71520091       2.71451213      -0.00017128       0.00000000
Si      -2.71544526      -2.71445157      -0.00017128       0.00000000
Si       2.71507059      -2.71495656      -0.00013703       0.00000000
