10
Lattice="16.28999089631971 0.0 0.0 0.0 16.28999089631971 0.0 0.0 0.0 34.25627252547053" Properties=species:S:1:pos:R:3:initial_magmoms:R:1 pbc="T T T"
Si       1.37266056       1.33885881      -1.38097389       0.00000000
Si      -1.34301276      -1.37414295      -1.38183029       0.00000000
Si       1.33245684      -1.41063255       1.35641212       0.00000000
Si      -1.25758800       1.45133346       1.60946335       0.00000000
Si      -2.68071498       2.69707407      -0.00335712       0.00000000
Si      -2.70700704      -2.72303640      -0.01270908       0.00000000
Si       2.73043206       2.70469942       0.00390522       0.00000000
Si       0.01272249       2.69847664      -2.74444281       0.00000000
Si      -2.70050733      -0.01759320      -2.74362066       0.00000000
Si       2.71383255      -2.73960333      -0.02856975       0.00000000
