10
Lattice="16.28999089631971 0.0 0.0 0.0 16.28999089631971 0.0 0.0 0.0 34.25627252547053" Properties=species:S:1:pos:R:3:initial_magmoms:R:1 pbc="T T T"
Si       2.26128006       0.47381094       0.41409005       0.00000000
Si      -1.56012588       0.96060501       1.51405958       0.00000000
Si      -0.19176588      -2.32870437       0.58516597       0.00000000
Si      -0.17257626       1.23790968      -2.08727011       0.00000000
Si      -0.30771810       3.22400018      -0.71927936       0.00000000
Si       3.12302106      -1.53707553      -0.42464099       0.00000000
Si      -3.16030887      -0.88272252       1.59887816       0.00000000
Si      -2.47899591      -2.80302030       0.36256859       0.00000000
Si       1.29184587      -3.47552037      -0.76806032       0.00000000
Si       2.64355749       0.35942256       2.75526780       0.00000000
