10
Lattice="16.28999089631971 0.0 0.0 0.0 16.28999089631971 0.0 0.0 0.0 34.25627252547053" Properties=species:S:1:pos:R:3:initial_magmoms:R:1 pbc="T T T"
Si      -0.70850097       2.17143812      -0.60284222       0.00000000
Si       1.56012588      -0.96060501      -1.51405958       0.00000000
Si       0.74486025       0.58567437       2.18918258       0.00000000
Si      -1.60018299      -1.84332753       0.08481858       0.00000000
Si       1.25240778       2.26339517      -2.23333894       0.00000000
Si      -2.01934098       2.37996153       1.54660306       0.00000000
Si       0.15874605      -1.42421841       3.26099343       0.00000000
Si      -2.03240556       1.71349853      -2.51215089       0.00000000
Si       1.36836000      -3.28930938      -0.92889360       0.00000000
Si       1.38754962       0.27730467      -3.60132969       0.00000000
