10
Lattice="16.28999089631971 0.0 0.0 0.0 16.28999089631971 0.0 0.0 0.0 34.25627252547053" Properties=species:S:1:pos:R:3:initial_magmoms:R:1 pbc="T T T"
Si       1.35725415      -1.35415766      -1.36220144       0.00000000
Si      -1.35689184       1.35968859      -1.36144780       0.00000000
Si      -1.34904006      -1.37544869       1.36007755       0.00000000
Si       1.37837739       1.36491768       1.34181894       0.00000000
Si       0.08362392       2.68769174       2.72741743       0.00000000
Si       2.71395377      -2.71091918      -0.00496716       0.00000000
Si      -2.71068858      -2.71551296      -0.00493291       0.00000000
Si      -0.00017065      -2.71248302      -2.71888761       0.00000000
Si      -2.71410948       2.71732325      -0.00095918       0.00000000
Si      -2.71456560       0.00198024      -2.71902464       0.00000000
