10
Lattice="16.28999089631971 0.0 0.0 0.0 16.28999089631971 0.0 0.0 0.0 34.25627252547053" Properties=species:S:1:pos:R:3:initial_magmoms:R:1 pbc="T T T"
Si       0.06543693       0.84392137       2.20870866       0.00000000
Si       0.77137143       1.97994362      -1.12648390       0.00000000
Si      -2.00984391      -0.81762672      -1.06907035       0.00000000
Si       1.78572676      -1.63551504       0.02192403       0.00000000
Si      -0.66129255      -2.08319682      -2.49382378       0.00000000
Si       2.06612490       0.65716955      -2.51208238       0.00000000
Si       0.68450468      -3.54496368      -0.93759470       0.00000000
Si       3.48916229      -0.64134268      -1.16707760       0.00000000
Si      -0.15866460       3.32370572       1.78903483       0.00000000
Si      -1.61371998      -0.51612910       3.40394493       0.00000000
