10
Lattice="16.28999089631971 0.0 0.0 0.0 16.28999089631971 0.0 0.0 0.0 34.25627252547053" Properties=species:S:1:pos:R:3:initial_magmoms:R:1 pbc="T T T"
Si      -1.95514209      -1.19640276      -0.34609131       0.00000000
Si       1.71724849      -1.55959320      -0.27083024       0.00000000
Si       0.46718091       1.62152289      -1.63954038       0.00000000
Si      -0.40705452       1.08440901       2.11498345       0.00000000
Si      -1.33305957      -2.71985008       1.48134482       0.00000000
Si      -1.25696898       3.10057344      -1.09846225       0.00000000
Si      -1.16307342       3.13978347       1.21270698       0.00000000
Si      -3.58063974       0.40558842       0.18292860       0.00000000
Si       0.03181437      -1.27857604      -3.47228624       0.00000000
Si       2.31890498      -1.34293783      -2.57165407       0.00000000
