10
Lattice="16.28999089631971 0.0 0.0 0.0 16.28999089631971 0.0 0.0 0.0 34.25627252547053" Properties=species:S:1:pos:R:3:initial_magmoms:R:1 pbc="T T T"
Si       0.33998859       0.24420339       2.25875710       0.00000000
Si      -0.11163537       2.19986676      -0.78087217       0.00000000
Si       1.56141279      -1.36885196      -1.07787422       0.00000000
Si      -1.96338483      -0.54386771      -1.18992655       0.00000000
Si      -1.90034253       1.63491327      -2.15335049       0.00000000
Si       0.60561333      -3.29405696      -0.05655714       0.00000000
Si      -2.84602590       1.62841356       0.96712363       0.00000000
Si       2.65127310       0.78178968       2.15033594       0.00000000
Si       0.49889754      -1.59689893      -3.22913508       0.00000000
Si       1.42490259       2.20736016      -2.59549645       0.00000000
