10
Lattice="16.28999089631971 0.0 0.0 0.0 16.28999089631971 0.0 0.0 0.0 34.25627252547053" Properties=species:S:1:pos:R:3:initial_magmoms:R:1 pbc="T T T"
Si      -1.71836694      -0.95210000       1.42423414       0.00000000
Si       1.04663250       1.73697012       1.37017086       0.00000000
Si      -0.54323892       0.48407364      -2.36567099       0.00000000
Si       1.64955798      -1.96579738       0.23848446       0.00000000
Si      -1.86764850      -2.51195777      -1.73069637       0.00000000
Si       2.34288335       0.38661057       2.84271524       0.00000000
Si      -0.39697101      -2.33294936       2.85683568       0.00000000
Si      -2.73427650       1.68339231      -2.09508054       0.00000000
Si       0.34241580      -1.99328512      -3.30974013       0.00000000
Si      -3.27899781      -2.18562246       0.14576895       0.00000000
