10
Lattice="16.28999089631971 0.0 0.0 0.0 16.28999089631971 0.0 0.0 0.0 34.25627252547053" Properties=species:S:1:pos:R:3:initial_magmoms:R:1 pbc="T T T"
Si      -1.35639627       1.35637056      -1.35781663       0.00000000
Si       1.34734367       1.36003581       1.36600389       0.00000000
Si       1.36017367      -1.36068741      -1.35839899       0.00000000
Si      -1.35791124      -1.36124127       1.38443377       0.00000000
Si       2.58341258      -0.03013650       2.80507644       0.00000000
Si       0.00146731       2.71336014      -2.71580455       0.00000000
Si      -2.71239216      -2.71687878       0.00181558       0.00000000
Si      -2.71325553      -0.00127062      -2.71638690       0.00000000
Si      -2.71534065       2.71438641      -0.00219240       0.00000000
Si       2.71804943       2.71362078       0.00325435       0.00000000
