10
Lattice="16.28999089631971 0.0 0.0 0.0 16.28999089631971 0.0 0.0 0.0 34.25627252547053" Properties=species:S:1:pos:R:3:initial_magmoms:R:1 pbc="T T T"
Si      -1.34734367      -1.36003581      -1.36600389       0.00000000
Si       1.23606891      -1.39017231       1.43907256       0.00000000
Si       1.37070576       1.35358497      -1.36274954       0.00000000
Si      -1.34229317       1.32411636       1.43903830       0.00000000
Si      -2.69328176       2.71948518       0.00674849       0.00000000
Si      -2.70525491      -2.72127708       0.01842988       0.00000000
Si      -2.70373994      -0.00366525      -2.72382052       0.00000000
Si       0.01172554       2.71085148      -2.72436862       0.00000000
Si       2.72023452       2.71826343       0.01229801       0.00000000
Si       0.01283000      -2.72072322      -2.72440288       0.00000000
