10
Lattice="16.28999089631971 0.0 0.0 0.0 16.28999089631971 0.0 0.0 0.0 34.25627252547053" Properties=species:S:1:pos:R:3:initial_magmoms:R:1 pbc="T T T"
Si       1.91554110      -1.24636419      -0.68087805       0.00000000
Si      -0.68452209       1.88998209      -1.30328062       0.00000000
Si       0.99562851       1.14370461       1.88317112       0.00000000
Si      -2.19349737      -0.95032602      -0.44779824       0.00000000
Si      -3.33244530       0.66645648       0.75925645       0.00000000
Si       1.82164554      -1.28557422      -2.99204728       0.00000000
Si      -0.08330706       0.27168462       3.75777817       0.00000000
Si       3.77886690       0.02204037      -0.12027384       0.00000000
Si      -2.35595754       0.27774450       2.97241843       0.00000000
Si      -2.40145551      -1.18578168      -2.80935848       0.00000000
