10
Lattice="16.28999089631971 0.0 0.0 0.0 16.28999089631971 0.0 0.0 0.0 34.25627252547053" Properties=species:S:1:pos:R:3:initial_magmoms:R:1 pbc="T T T"
Si       1.16308875       1.86994539       0.78443482       0.00000000
Si       0.49809348      -0.47905632      -2.27054127       0.00000000
Si      -2.28514491       0.64260792      -0.26709631       0.00000000
Si       0.06273279      -1.44409221       1.95288268       0.00000000
Si      -0.65363625       3.25599633       1.23079430       0.00000000
Si      -1.36523232      -1.74746088      -2.83114548       0.00000000
Si       2.39059727      -1.86509097      -1.94603142       0.00000000
Si      -2.16585324      -2.30534451       1.79526948       0.00000000
Si      -3.36408048      -0.22941207       1.60751074       0.00000000
Si       1.96206927       1.55338182       2.95347470       0.00000000
