10
Lattice="16.28999089631971 0.0 0.0 0.0 16.28999089631971 0.0 0.0 0.0 34.25627252547053" Properties=species:S:1:pos:R:3:initial_magmoms:R:1 pbc="T T T"
Si      -0.41303295      -1.41436296       1.88173236       0.00000000
Si       2.22858603       0.86125230       0.15761320       0.00000000
Si      -1.19822724       2.07593244      -0.18775873       0.00000000
Si       0.02010186      -1.50498423      -1.90951421       0.00000000
Si      -2.71428867      -2.07643743      -0.16151842       0.00000000
Si      -0.11929167       2.94795243      -2.06236578       0.00000000
Si       2.16585324       2.30534451      -1.79526948       0.00000000
Si       3.47248133      -1.06315056      -0.26956276       0.00000000
Si       0.47172582      -3.46064760       1.13011506       0.00000000
Si       0.13173723      -3.70485099      -1.12864204       0.00000000
