10
Lattice="16.28999089631971 0.0 0.0 0.0 16.28999089631971 0.0 0.0 0.0 34.25627252547053" Properties=species:S:1:pos:R:3:initial_magmoms:R:1 pbc="T T T"
Si       1.23880563      -1.39483125      -1.37246462       0.00000000
Si      -1.37899737       1.32988302      -1.31627745       0.00000000
Si      -1.35189081      -1.35609363       1.33679697       0.00000000
Si       1.35912357       1.35920502       1.33922917       0.00000000
Si       0.42771024       2.14552332      -2.58621197       0.00000000
Si      -0.71783514      -2.13535836      -2.66423547       0.00000000
Si       2.28988530       0.13688487      -2.75228891       0.00000000
Si      -2.49818553      -0.29717847      -2.64511840       0.00000000
Si      -2.71174743       0.00037467       2.69351740       0.00000000
Si       0.00259011      -2.71241532       2.69413402       0.00000000
