10
Lattice="16.28999089631971 0.0 0.0 0.0 16.28999089631971 0.0 0.0 0.0 34.25627252547053" Properties=species:S:1:pos:R:3:initial_magmoms:R:1 pbc="T T T"
Si       1.35624024      -1.35549090       1.35730279       0.00000000
Si      -1.35428544       1.35788553       1.35723428       0.00000000
Si      -1.35628911      -1.35679410      -1.35654915       0.00000000
Si       1.35860229       1.35842310      -1.35672043       0.00000000
Si      -0.00485442      -2.70143586       2.71501665       0.00000000
Si      -0.01485648       2.70837540       2.71652393       0.00000000
Si       0.00078192      -2.71401174      -2.71364640       0.00000000
Si      -2.71326240       2.71459818       0.00071938       0.00000000
Si      -2.71448415       0.00097740      -2.71374917       0.00000000
Si       2.71557558       0.00122175      -2.71309830       0.00000000
