10
Lattice="16.28999089631971 0.0 0.0 0.0 16.28999089631971 0.0 0.0 0.0 34.25627252547053" Properties=species:S:1:pos:R:3:initial_magmoms:R:1 pbc="T T T"
Si       0.90264519      -2.14938405      -0.26514370       0.00000000
Si       0.15848541       0.99044829      -2.13594830       0.00000000
Si      -2.23645410      -0.09992286       0.75531698       0.00000000
Si       1.46779646       1.00134630       1.60449619       0.00000000
Si      -1.80939546      -0.39936564       3.02873577       0.00000000
Si      -0.21610314       3.24511461      -1.48014585       0.00000000
Si       0.02177973       1.53907920       3.37215510       0.00000000
Si       3.23784017      -1.84088403      -0.53220575       0.00000000
Si      -0.12033423      -3.12098481      -2.26985614       0.00000000
Si      -1.62531846       0.41702400      -3.53096726       0.00000000
