10
Lattice="16.28999089631971 0.0 0.0 0.0 16.28999089631971 0.0 0.0 0.0 34.25627252547053" Properties=species:S:1:pos:R:3:initial_magmoms:R:1 pbc="T T T"
Si      -1.48361175       1.14681600       1.35322629       0.00000000
Si      -0.42705864       0.29944278      -2.27341880       0.00000000
Si       0.11279196      -2.39379921       0.30498376       0.00000000
Si       1.74430062       0.21958920       1.80287437       0.00000000
Si       1.83117519       1.93844484       0.34341932       0.00000000
Si      -0.14335200       0.30392253       3.23492439       0.00000000
Si       1.80939546       0.39936564      -3.02873577       0.00000000
Si      -1.56735864      -1.64752173      -2.88146797       0.00000000
Si      -1.29184587       3.47552037       0.76806032       0.00000000
Si       3.27719192       1.40071194      -1.42423958       0.00000000
