10
Lattice="16.28999089631971 0.0 0.0 0.0 16.28999089631971 0.0 0.0 0.0 34.25627252547053" Properties=species:S:1:pos:R:3:initial_magmoms:R:1 pbc="T T T"
Si       1.35578412      -1.35698958      -1.35572700       0.00000000
Si      -1.35726651      -1.35711990       1.35661766       0.00000000
Si       1.35721764       1.35778779       1.35665192       0.00000000
Si      -1.35848826       1.36094805      -1.35449377       0.00000000
Si      -0.00333945      -2.71619460      -2.69495617       0.00000000
Si      -2.71373481       0.00605988      -2.70276660       0.00000000
Si      -0.02018331       2.71088165      -2.71445142       0.00000000
Si       2.72411154       0.00478926      -2.70396900       0.00000000
Si       0.00039096       2.71472390       2.71357789       0.00000000
Si       0.00026064      -2.71474479       2.71361214       0.00000000
