10
Lattice="16.28999089631971 0.0 0.0 0.0 16.28999089631971 0.0 0.0 0.0 34.25627252547053" Properties=species:S:1:pos:R:3:initial_magmoms:R:1 pbc="T T T"
Si      -1.34855136       1.26557010       1.42475343       0.00000000
Si      -1.36164852      -1.34006427      -1.36501045       0.00000000
Si       1.34904006       1.37544869      -1.36007755       0.00000000
Si       1.34579723      -1.46176686       1.55622907       0.00000000
Si       0.66129255       2.08319682       2.49382378       0.00000000
Si       2.44701931       0.44768178       2.51574780       0.00000000
Si      -2.39782284      -0.38077875       2.72430011       0.00000000
Si      -0.77784750      -2.29961043       2.87811086       0.00000000
Si      -0.00913869      -2.69374698      -2.72121704       0.00000000
Si       2.72296214      -2.70490563       0.02308874       0.00000000
