10
Lattice="16.28999089631971 0.0 0.0 0.0 16.28999089631971 0.0 0.0 0.0 34.25627252547053" Properties=species:S:1:pos:R:3:initial_magmoms:R:1 pbc="T T T"
Si       0.78966915      -2.19128193      -0.33060747       0.00000000
Si       1.94430435       1.10672631       0.88973866       0.00000000
Si      -1.48008692       0.37001106       1.87738181       0.00000000
Si      -1.12628408       1.00769940      -2.02509494       0.00000000
Si       2.88327624       0.71830755      -1.33188462       0.00000000
Si      -3.36415771       0.05444118       0.54330479       0.00000000
Si       2.46180507      -1.60054137      -1.87450428       0.00000000
Si      -1.21151499      -3.23187084      -0.96914475       0.00000000
Si      -3.03627259       1.87737363      -0.97356381       0.00000000
Si      -0.99671017       2.85568587       2.18325624       0.00000000
