10
Lattice="16.28999089631971 0.0 0.0 0.0 16.28999089631971 0.0 0.0 0.0 34.25627252547053" Properties=species:S:1:pos:R:3:initial_magmoms:R:1 pbc="T T T"
Si       2.18138087      -0.73502109      -0.13476425       0.00000000
Si      -0.79898052       0.31656357      -2.16903988       0.00000000
Si       0.19250219       2.09292291       1.05663532       0.00000000
Si      -1.09741006      -1.83629025       1.01549351       0.00000000
Si      -2.61570552       1.70261451      -1.72268040       0.00000000
Si       2.00302166       1.63519020       2.47960742       0.00000000
Si      -1.89933648      -2.99747403      -1.00059202       0.00000000
Si      -3.00739857      -0.96661602       2.06702464       0.00000000
Si      -1.96206927      -1.55338182      -2.95347470       0.00000000
Si       2.48251781      -2.52877815      -1.58661440       0.00000000
