10
Lattice="16.28999089631971 0.0 0.0 0.0 16.28999089631971 0.0 0.0 0.0 34.25627252547053" Properties=species:S:1:pos:R:3:initial_magmoms:R:1 pbc="T T T"
Si      -1.47385404       1.23810516      -1.28749189       0.00000000
Si       1.34913847       1.35340578       1.34327484       0.00000000
Si       1.18360763      -1.51154910      -1.34265480       0.00000000
Si      -1.36832742      -1.36177884       1.34824200       0.00000000
Si      -2.29974075      -0.57546054      -2.57719914       0.00000000
Si      -0.43756569      -2.58409899      -2.74327608       0.00000000
Si       2.70553183      -0.00491958       2.70314685       0.00000000
Si      -0.01002138       2.70998131       2.70304408       0.00000000
Si       2.69539945       2.71907122      -0.04072045       0.00000000
Si      -0.00984812      -2.72052774       2.70283854       0.00000000
