10
Lattice="16.28999089631971 0.0 0.0 0.0 16.28999089631971 0.0 0.0 0.0 34.25627252547053" Properties=species:S:1:pos:R:3:initial_magmoms:R:1 pbc="T T T"
Si      -1.34913847      -1.35340578      -1.34327484       0.00000000
Si       1.35639337      -1.35832536       1.35987201       0.00000000
Si      -1.35915985       1.35657553       1.35976924       0.00000000
Si       1.34626099       1.36566544      -1.38399529       0.00000000
Si      -2.71215535       2.71527651       0.00092492       0.00000000
Si       2.70808870       2.71968785      -0.00047959       0.00000000
Si       2.71649434      -2.71456560      -0.00195261       0.00000000
Si       2.71440922      -0.00037467       2.71700352       0.00000000
Si      -0.00089595       2.71509081       2.71672947       0.00000000
Si      -2.71746589      -2.71518462       0.00496716       0.00000000
