10
Lattice="16.28999089631971 0.0 0.0 0.0 16.28999089631971 0.0 0.0 0.0 34.25627252547053" Properties=species:S:1:pos:R:3:initial_magmoms:R:1 pbc="T T T"
Si       1.10122208       1.90944864       0.95951873       0.00000000
Si       1.37716491      -1.24313877      -1.53314033       0.00000000
Si       0.28675303      -2.09383515       1.33510471       0.00000000
Si      -1.34579723       1.46176686      -1.55622907       0.00000000
Si      -2.12364473      -0.83784357       1.32188178       0.00000000
Si       2.25509817      -0.46156086       2.41520559       0.00000000
Si      -0.68450468       3.54496368       0.93759470       0.00000000
Si       2.73343773      -2.59779888       0.02298597       0.00000000
Si      -2.69434859       2.72733696      -0.13147565       0.00000000
Si      -2.79728510      -2.62446561      -0.17011674       0.00000000
