10
Lattice="16.28999089631971 0.0 0.0 0.0 16.28999089631971 0.0 0.0 0.0 34.450931932916035" Properties=species:S:1:pos:R:3:initial_magmoms:R:1 pbc="T T T"
Si      -1.40201092      -1.81213218       0.27502194       0.00000000
Si       2.08433319      -0.78635088      -0.81152661       0.00000000
Si       1.06867124       1.35244467       1.69715721       0.00000000
Si      -1.53120691       0.83199546      -1.68606400       0.00000000
Si       2.88949902       1.20594870      -1.70425410       0.00000000
Si       2.67085464       2.40139035       0.31729326       0.00000000
Si      -1.74315610      -2.66009184      -1.84157560       0.00000000
Si      -3.35630593      -1.18581426       1.35771199       0.00000000
Si       2.48149968      -0.09739791       2.96415984       0.00000000
Si       3.67648521      -1.04029569       0.88401141       0.00000000
