10
Lattice="16.28999089631971 0.0 0.0 0.0 16.28999089631971 0.0 0.0 0.0 34.450931932916035" Properties=species:S:1:pos:R:3:initial_magmoms:R:1 pbc="T T T"
Si      -1.34830701      -1.33524033       1.35917615       0.00000000
Si      -1.39237146       1.30718242      -1.34556803       0.00000000
Si       1.36651923       1.38022352       1.34987439       0.00000000
Si       1.31077485      -1.32768177      -1.45772654       0.00000000
Si       2.23085034       0.63619732      -2.47792118       0.00000000
Si       0.34179678       2.26588313      -2.66330382       0.00000000
Si      -2.72518668      -2.66380386      -0.01529278       0.00000000
Si       2.72231964      -2.68263510      -0.01905482       0.00000000
Si       0.00814500      -2.69301183       2.71392536       0.00000000
Si      -2.70498708       0.02075557       2.71399426       0.00000000
