10
Lattice="16.28999089631971 0.0 0.0 0.0 16.28999089631971 0.0 0.0 0.0 34.450931932916035" Properties=species:S:1:pos:R:3:initial_magmoms:R:1 pbc="T T T"
Si      -1.38574143      -2.03110888      -0.42419456       0.00000000
Si       0.16894359       1.91368404      -1.63300954       0.00000000
Si       2.15633988      -1.24531186       0.73566561       0.00000000
Si      -2.06720100       0.74746665       1.39956989       0.00000000
Si       1.83236436       2.25930897       0.27812253       0.00000000
Si       2.30356890       0.73353870       2.09603032       0.00000000
Si      -2.13887700      -1.56333827       1.81808005       0.00000000
Si      -0.94141539       0.20961972      -3.09565912       0.00000000
Si      -2.81541699      -0.82033182      -1.88567281       0.00000000
Si       0.12873987      -3.54355460      -1.70153248       0.00000000
