10
Lattice="16.28999089631971 0.0 0.0 0.0 16.28999089631971 0.0 0.0 0.0 34.450931932916035" Properties=species:S:1:pos:R:3:initial_magmoms:R:1 pbc="T T T"
Si       1.42967556      -1.21077706       1.46147825       0.00000000
Si      -0.95993712      -1.82795696      -1.21629083       0.00000000
Si       1.87400160       1.02995154      -1.20998631       0.00000000
Si      -1.78437402       1.78025265       0.42591711       0.00000000
Si       0.44623197       2.26097055      -2.59815293       0.00000000
Si       2.81541699       0.82033182       1.88567281       0.00000000
Si      -2.27679140      -0.46436274      -2.60283826       0.00000000
Si       0.74821599       1.56779847       3.28524271       0.00000000
Si      -0.79249221       3.58521723      -0.95308556       0.00000000
Si       0.67653999      -0.74300645       3.70375286       0.00000000
