10
Lattice="16.28999089631971 0.0 0.0 0.0 16.28999089631971 0.0 0.0 0.0 34.450931932916035" Properties=species:S:1:pos:R:3:initial_magmoms:R:1 pbc="T T T"
Si      -1.52466255       0.07373343      -1.79506681       0.00000000
Si       2.19089097       0.93928792      -0.22186413       0.00000000
Si       0.02267568      -2.30431239       0.90860939       0.00000000
Si      -1.06934076       1.50429679       1.71186776       0.00000000
Si       3.23938053      -0.10211875       1.57695784       0.00000000
Si      -0.20360871       0.23460369      -3.69228069       0.00000000
Si       1.70616573       3.23064583      -0.67155239       0.00000000
Si      -2.23287030      -2.11878558      -2.19456004       0.00000000
Si       2.02864257      -3.22805313      -0.09150173       0.00000000
Si      -1.62225594      -3.48796008      -0.37189802       0.00000000
