10
Lattice="16.28999089631971 0.0 0.0 0.0 16.28999089631971 0.0 0.0 0.0 34.450931932916035" Properties=species:S:1:pos:R:3:initial_magmoms:R:1 pbc="T T T"
Si       1.35272160       1.37953494      -1.32937263       0.00000000
Si       1.35654975      -1.35723393       1.36232841       0.00000000
Si      -1.35694071       1.36036161       1.36095038       0.00000000
Si      -1.36456443      -1.36919079      -1.34708387       0.00000000
Si      -0.02919168       2.64119544      -2.70400348       0.00000000
Si       0.02959893      -2.62935261      -2.76900898       0.00000000
Si       2.75674041       0.11473047      -2.66232472       0.00000000
Si      -2.71318095      -2.71515204       0.00633898       0.00000000
Si       2.71538010      -2.71410948       0.00540880       0.00000000
Si       2.71300176       2.71720458       0.00713135       0.00000000
