10
Lattice="16.28999089631971 0.0 0.0 0.0 16.28999089631971 0.0 0.0 0.0 34.450931932916035" Properties=species:S:1:pos:R:3:initial_magmoms:R:1 pbc="T T T"
Si      -1.40401881       1.26480447       1.33295209       0.00000000
Si       1.31090517      -1.48442625       1.29302344       0.00000000
Si      -1.83702330      -0.87330690      -1.22250544       0.00000000
Si       1.65975552       0.95345370      -1.42663942       0.00000000
Si      -0.04373865       2.60247411       2.66945607       0.00000000
Si       2.69034237       2.61190602      -0.00930865       0.00000000
Si      -2.78593209       2.52646497      -0.04167876       0.00000000
Si       2.67590943      -0.11502369       2.66456403       0.00000000
Si      -2.75674041      -0.11473047       2.66232472       0.00000000
Si      -2.72714148      -2.74408308      -0.10668426       0.00000000
