10
Lattice="16.28999089631971 0.0 0.0 0.0 16.28999089631971 0.0 0.0 0.0 34.450931932916035" Properties=species:S:1:pos:R:3:initial_magmoms:R:1 pbc="T T T"
Si      -1.35770634      -1.35599589       1.35664401       0.00000000
Si       1.35883035      -1.35687555      -1.35691961       0.00000000
Si       1.35754344       1.35931905       1.35640285       0.00000000
Si      -1.35654975       1.35723393      -1.36232841       0.00000000
Si       0.00690696      -2.69731449      -2.72744735       0.00000000
Si       2.71412577      -2.71236645      -0.00044786       0.00000000
Si      -0.00034209      -2.71288773       2.71404593       0.00000000
Si      -0.00382815       2.73676887      -2.69170105       0.00000000
Si       2.71495656       0.00188964       2.71373588       0.00000000
Si      -2.71464705       0.00174303       2.71428709       0.00000000
