10
Lattice="16.28999089631971 0.0 0.0 0.0 16.28999089631971 0.0 0.0 0.0 34.450931932916035" Properties=species:S:1:pos:R:3:initial_magmoms:R:1 pbc="T T T"
Si       0.65990790       1.74099375      -1.59780067       0.00000000
Si       0.56760876       1.01651229       2.29894642       0.00000000
Si       1.80100611      -1.83778893      -0.17222030       0.00000000
Si      -1.97584668      -0.98658756      -1.37796915       0.00000000
Si       1.98778725       0.40244445      -3.03275168       0.00000000
Si       1.49771889       3.50143776      -0.29865530       0.00000000
Si      -0.73712250      -2.31083424      -3.02303652       0.00000000
Si       3.45914892      -0.81254520      -1.63917626       0.00000000
Si       0.69064713      -3.54185325      -1.63486989       0.00000000
Si       2.97647622       0.62683920       2.69485675       0.00000000
