10
Lattice="16.28999089631971 0.0 0.0 0.0 16.28999089631971 0.0 0.0 0.0 34.450931932916035" Properties=species:S:1:pos:R:3:initial_magmoms:R:1 pbc="T T T"
Si       2.00811717      -0.95298129      -0.75823098       0.00000000
Si      -0.20375532      -0.58736853       2.27355607       0.00000000
Si       0.57800178       2.35585980      -0.05808430       0.00000000
Si      -1.55650950      -1.41449328      -1.24584975       0.00000000
Si       2.09124504      -2.81334816       0.75867885       0.00000000
Si       1.39201308      -1.05363720      -3.13700026       0.00000000
Si      -2.65813704       2.31832764       1.11466053       0.00000000
Si      -0.49875093       3.17369925       1.84443502       0.00000000
Si      -1.01685438      -0.66396411      -3.53291059       0.00000000
Si      -1.81985364       1.52963100      -2.88664520       0.00000000
