10
Lattice="16.28999089631971 0.0 0.0 0.0 16.28999089631971 0.0 0.0 0.0 34.450931932916035" Properties=species:S:1:pos:R:3:initial_magmoms:R:1 pbc="T T T"
Si       0.21698280      -2.34225765       0.31942922       0.00000000
Si      -2.30801607       0.56448108       0.01474501       0.00000000
Si       1.55650950       1.41449328       1.24584975       0.00000000
Si       0.53965512       0.75052917      -2.28706085       0.00000000
Si      -0.26334414       2.94412428      -1.64079545       0.00000000
Si      -1.90509921       2.89838196       0.09594590       0.00000000
Si       2.94852258       0.36085608      -1.89115051       0.00000000
Si       3.56462667       0.46151199       0.48761876       0.00000000
Si      -0.46309212      -3.26998944      -1.72564814       0.00000000
Si       1.35275418       0.82712475       3.51940582       0.00000000
