10
Lattice="16.28999089631971 0.0 0.0 0.0 16.28999089631971 0.0 0.0 0.0 34.450931932916035" Properties=species:S:1:pos:R:3:initial_magmoms:R:1 pbc="T T T"
Si       1.56037023       1.29433824      -1.18614625       0.00000000
Si       0.48795066      -2.11900320      -0.95594499       0.00000000
Si       0.61610409       0.10065591       2.37876928       0.00000000
Si      -2.40886746       0.38967309      -0.39591033       0.00000000
Si      -2.94852258      -0.36085608       1.89115051       0.00000000
Si       2.03921478      -0.28945701      -2.87786021       0.00000000
Si      -1.39201308       1.05363720       3.13700026       0.00000000
Si       3.42608022       1.20462921       0.40152584       0.00000000
Si       2.39899572       1.68182847       2.49300863       0.00000000
Si       0.95915520      -3.64477347       0.86196280       0.00000000
