10
Lattice="16.28999089631971 0.0 0.0 0.0 16.28999089631971 0.0 0.0 0.0 34.450931932916035" Properties=species:S:1:pos:R:3:initial_magmoms:R:1 pbc="T T T"
Si      -2.07813159      -0.99020394       0.47184023       0.00000000
Si       1.55833398      -1.63890432       0.66111375       0.00000000
Si       0.20375532       0.58736853      -2.27355607       0.00000000
Si       0.43614846       2.04449274       1.21084758       0.00000000
Si      -3.07869597       1.14433992       0.33090139       0.00000000
Si       2.29500036      -2.22597963      -1.51487723       0.00000000
Si       2.81536812      -0.46318986       2.34576527       0.00000000
Si      -1.59979203      -2.40785748       2.37084556       0.00000000
Si       2.21187249      -0.36561276      -3.03178706       0.00000000
Si      -0.29499561       3.76106778      -0.42912105       0.00000000
