10
Lattice="16.28999089631971 0.0 0.0 0.0 16.28999089631971 0.0 0.0 0.0 34.450931932916035" Properties=species:S:1:pos:R:3:initial_magmoms:R:1 pbc="T T T"
Si      -1.39685121      -1.87245405      -0.35901336       0.00000000
Si      -0.47833956       1.41765354      -1.89900533       0.00000000
Si      -0.02627577       0.81324567       2.28192765       0.00000000
Si       2.07487359      -1.11772206      -0.68657301       0.00000000
Si       3.15812601       0.76895316      -1.70973181       0.00000000
Si      -2.09463336       0.09128916      -3.03185596       0.00000000
Si      -3.32404292      -0.96500331      -1.33590453       0.00000000
Si       1.59979203       2.40785748      -2.37084556       0.00000000
Si      -2.84708475       2.17727253       1.06921972       0.00000000
Si      -0.47299644      -3.64829537       0.91195113       0.00000000
