10
Lattice="16.28999089631971 0.0 0.0 0.0 16.28999089631971 0.0 0.0 0.0 34.450931932916035" Properties=species:S:1:pos:R:3:initial_magmoms:R:1 pbc="T T T"
Si      -1.35550719       1.35645201      -1.36298298       0.00000000
Si       1.36234899      -1.35858600      -1.36215616       0.00000000
Si       1.36291914       1.37728692       1.35802204       0.00000000
Si      -1.36853919      -1.36653552       1.38451483       0.00000000
Si       2.64113028      -0.02358792       2.76282848       0.00000000
Si      -2.71451673       2.71116099      -0.00478868       0.00000000
Si      -2.71259451      -2.71603170      -0.00113688       0.00000000
Si       2.71629234       2.71264338      -0.00633898       0.00000000
Si      -2.71288773      -0.00195480      -2.71973034       0.00000000
Si       0.00213399       2.71280628      -2.71997150       0.00000000
