10
Lattice="16.28999089631971 0.0 0.0 0.0 16.28999089631971 0.0 0.0 0.0 34.450931932916035" Properties=species:S:1:pos:R:3:initial_magmoms:R:1 pbc="T T T"
Si      -1.35337320      -1.33535646       1.36436102       0.00000000
Si      -1.35516510       1.35648459      -1.35654065       0.00000000
Si       1.35953082      -1.35461124      -1.35674736       0.00000000
Si       1.35311256       1.35617508       1.38389471       0.00000000
Si      -2.62008360       0.13641246       2.77550643       0.00000000
Si       2.71479366       2.71233000       0.00241157       0.00000000
Si      -2.71415835       0.00016290      -2.71363252       0.00000000
Si       0.00066789      -2.71423980      -2.71377033       0.00000000
Si       0.00120546       2.71537451      -2.71356362       0.00000000
Si      -2.71629234      -2.71264338       0.00633898       0.00000000
