10
Lattice="16.28999089631971 0.0 0.0 0.0 16.28999089631971 0.0 0.0 0.0 34.450931932916035" Properties=species:S:1:pos:R:3:initial_magmoms:R:1 pbc="T T T"
Si       1.04949954       1.86532296      -0.99621816       0.00000000
Si      -2.14293321       0.88198947       0.45544157       0.00000000
Si      -0.46341792      -1.41449328      -1.88229662       0.00000000
Si       1.19529504      -0.90140715       1.91905578       0.00000000
Si      -3.40196776      -1.02262104       0.22344887       0.00000000
Si      -0.60815457       2.73993306      -2.44963488       0.00000000
Si      -2.69076591       2.13660359      -1.51343029       0.00000000
Si       2.82278007       1.06002288      -2.27386613       0.00000000
Si      -2.83649625      -1.56027249      -2.02692171       0.00000000
Si       3.46623507       0.03847698       1.66342973       0.00000000
