10
Lattice="16.28999089631971 0.0 0.0 0.0 16.28999089631971 0.0 0.0 0.0 34.450931932916035" Properties=species:S:1:pos:R:3:initial_magmoms:R:1 pbc="T T T"
Si      -0.61061436       1.36917450      -1.82266202       0.00000000
Si       0.52471719      -2.15892999      -0.82740849       0.00000000
Si       1.64493162       1.18364769       1.28050740       0.00000000
Si      -2.07772434      -0.42235083       1.25811429       0.00000000
Si      -0.87633684      -1.96763652      -2.70064451       0.00000000
Si      -0.16751007      -3.45567915       0.94977827       0.00000000
Si      -2.86471053       1.82389356      -1.33015123       0.00000000
Si       3.65089851       0.25990695       0.28039629       0.00000000
Si      -3.66987636      -0.16840602      -0.43742373       0.00000000
Si       0.00677664       0.04926096      -3.70926501       0.00000000
