10
Lattice="16.28999089631971 0.0 0.0 0.0 16.28999089631971 0.0 0.0 0.0 34.450931932916035" Properties=species:S:1:pos:R:3:initial_magmoms:R:1 pbc="T T T"
Si      -1.35013149       1.35817875      -1.35578273       0.00000000
Si      -1.33496550      -1.34909545       1.38785657       0.00000000
Si       1.36361961      -1.35624350      -1.35399128       0.00000000
Si       1.36456443       1.34952876       1.37776244       0.00000000
Si      -2.64106512       0.14323797       2.76114038       0.00000000
Si      -2.70933651       0.00078192      -2.71270235       0.00000000
Si      -2.71019988      -2.71515820       0.00564996       0.00000000
Si      -2.71309950       2.71349046       0.00227376       0.00000000
Si       0.00628794      -2.71459466      -2.71277125       0.00000000
Si       0.00596214       2.71555929      -2.71301241       0.00000000
