10
Lattice="16.28999089631971 0.0 0.0 0.0 16.28999089631971 0.0 0.0 0.0 34.450931932916035" Properties=species:S:1:pos:R:3:initial_magmoms:R:1 pbc="T T T"
Si      -1.73552031      -1.02550944       1.27902601       0.00000000
Si       1.68860511       0.78931615       1.53919960       0.00000000
Si       1.19358459      -1.48936719      -1.49155393       0.00000000
Si      -1.49957595       1.23533146      -1.48838444       0.00000000
Si       2.56298715       2.52949703       0.02067057       0.00000000
Si       2.53048860      -2.84205621      -0.02470133       0.00000000
Si       3.45880683      -0.99270138       1.29897311       0.00000000
Si       2.55526569      -0.13321227      -2.87303707       0.00000000
Si      -0.16461045       2.58442691      -2.87624101       0.00000000
Si      -2.77961157      -2.70912981      -0.09994221       0.00000000
