10
Lattice="16.28999089631971 0.0 0.0 0.0 16.28999089631971 0.0 0.0 0.0 34.450931932916035" Properties=species:S:1:pos:R:3:initial_magmoms:R:1 pbc="T T T"
Si       1.87844877       0.90165150      -1.13054241       0.00000000
Si      -1.64305827       0.59908104      -1.61812673       0.00000000
Si       0.48472524      -2.29135792       0.44968827       0.00000000
Si      -0.25622541       1.55690046       1.80901945       0.00000000
Si       1.94214267       2.33411265       1.73205602       0.00000000
Si       3.58502175      -0.34961598      -0.03992865       0.00000000
Si       2.67641442      -2.44785269      -0.55510818       0.00000000
Si      -1.70616573      -3.23064583       0.67155239       0.00000000
Si       1.87460433       3.20864130      -0.57646777       0.00000000
Si      -1.39315338      -0.73748088      -3.58651627       0.00000000
