10
Lattice="16.28999089631971 0.0 0.0 0.0 16.28999089631971 0.0 0.0 0.0 34.450931932916035" Properties=species:S:1:pos:R:3:initial_magmoms:R:1 pbc="T T T"
Si       1.22170113       1.29973170       1.54580871       0.00000000
Si       1.32736296      -1.12741056      -1.60314056       0.00000000
Si      -1.42995805      -1.40820129       1.45713196       0.00000000
Si      -0.65709529       1.76262182      -1.67617658       0.00000000
Si       1.08712781       3.31220807      -1.01306467       0.00000000
Si      -2.67744625       2.59917848      -0.07816921       0.00000000
Si       2.85801697       2.42959958       0.27365084       0.00000000
Si       2.74019140      -2.57725314      -0.33613793       0.00000000
Si       2.54244709      -0.06720200       2.90898461       0.00000000
Si      -0.16238428       2.64073427       2.91780406       0.00000000
