10
Lattice="16.28999089631971 0.0 0.0 0.0 16.28999089631971 0.0 0.0 0.0 34.450931932916035" Properties=species:S:1:pos:R:3:initial_magmoms:R:1 pbc="T T T"
Si      -1.47136167       1.21498965      -1.39357543       0.00000000
Si       1.23712776      -1.52301726      -1.37907158       0.00000000
Si       1.55654208       1.14992739       1.45617280       0.00000000
Si      -1.65814281      -1.02524373       1.46695595       0.00000000
Si       2.99861433      -0.62105625       0.62742072       0.00000000
Si       0.00527796      -0.67961880       3.37808802       0.00000000
Si      -0.12056229       2.55508650      -2.75507702       0.00000000
Si       2.59400331      -0.15569982      -2.75431910       0.00000000
Si      -2.79924102       2.55353895       0.04137559       0.00000000
Si       2.78785431       2.64331314       0.06862629       0.00000000
