10
Lattice="16.28999089631971 0.0 0.0 0.0 16.28999089631971 0.0 0.0 0.0 34.450931932916035" Properties=species:S:1:pos:R:3:initial_magmoms:R:1 pbc="T T T"
Si       2.27515914       0.36085608      -0.43680361       0.00000000
Si      -0.39845340      -2.30641965      -0.48734316       0.00000000
Si      -1.44207225       1.77098364       0.82875208       0.00000000
Si      -1.76148657      -0.90196101      -2.00649230       0.00000000
Si       0.96493815       1.81216476      -2.00979959       0.00000000
Si      -2.99861433       0.62105625      -0.62742072       0.00000000
Si      -0.21076002       3.26436939      -0.55879443       0.00000000
Si      -0.40461102       0.46535643      -3.38173982       0.00000000
Si       1.90913913      -2.67615378       2.18346684       0.00000000
Si       3.25203786       2.18343015       0.92108063       0.00000000
