10
Lattice="16.28999089631971 0.0 0.0 0.0 16.28999089631971 0.0 0.0 0.0 34.450931932916035" Properties=species:S:1:pos:R:3:initial_magmoms:R:1 pbc="T T T"
Si       2.25632790      -0.60945777       0.10579887       0.00000000
Si      -1.12169682      -1.73872944      -1.11927695       0.00000000
Si      -0.09037692       2.20876110      -0.88859338       0.00000000
Si      -0.47231226       0.22522554       2.33084800       0.00000000
Si       2.26009089       2.52434727      -0.93162262       0.00000000
Si      -3.18471129      -0.70595973      -1.31974704       0.00000000
Si       1.25222859       1.66487058       3.03068463       0.00000000
Si       3.08154672       0.63386019       1.95367899       0.00000000
Si       2.19489831      -2.91084381       0.89930763       0.00000000
Si      -2.66434353       1.05683004       2.54089545       0.00000000
