10
Lattice="16.28999089631971 0.0 0.0 0.0 16.28999089631971 0.0 0.0 0.0 34.450931932916035" Properties=species:S:1:pos:R:3:initial_magmoms:R:1 pbc="T T T"
Si       2.06301447      -1.03276971       0.20047008       0.00000000
Si      -1.23528699      -1.61049456      -1.19279528       0.00000000
Si      -0.73666638       0.58707531       2.17599098       0.00000000
Si      -0.08312787       1.86036687      -1.51690983       0.00000000
Si       2.40762942      -1.25125119      -2.14998051       0.00000000
Si       3.18471129       0.70595973       1.31974704       0.00000000
Si      -2.29500036       2.22597963       1.51487723       0.00000000
Si       0.25992324      -1.88506251      -3.03371631       0.00000000
Si      -2.09124504       2.81334816      -0.75867885       0.00000000
Si      -1.81991880      -1.29959991       3.19914978       0.00000000
