10
Lattice="16.28999089631971 0.0 0.0 0.0 16.28999089631971 0.0 0.0 0.0 34.450931932916035" Properties=species:S:1:pos:R:3:initial_magmoms:R:1 pbc="T T T"
Si       1.77088916      -0.88260849       1.28671551       0.00000000
Si       1.41604409       0.48614247      -1.87065220       0.00000000
Si      -1.14412994       1.71121563       1.24099513       0.00000000
Si      -1.74422310      -1.54958625      -0.66311191       0.00000000
Si       0.13457332      -2.01247637       2.55887338       0.00000000
Si      -2.65599069       2.39383179      -0.36166609       0.00000000
Si       0.43318694       2.53628784      -2.52373888       0.00000000
Si      -1.08712781      -3.31220807       1.01306467       0.00000000
Si       1.21976588      -1.45336122      -3.18013285       0.00000000
Si      -2.65226028       0.55711800       2.55366784       0.00000000
