10
Lattice="16.28999089631971 0.0 0.0 0.0 16.28999089631971 0.0 0.0 0.0 34.450931932916035" Properties=species:S:1:pos:R:3:initial_magmoms:R:1 pbc="T T T"
Si      -1.56037023      -1.29433824       1.18614625       0.00000000
Si       0.47884455      -1.58379525      -1.69171396       0.00000000
Si       1.86570999      -0.08970903       1.58767209       0.00000000
Si       1.71015678      -0.09040950      -3.07926047       0.00000000
Si      -1.07241957      -3.41334144       0.23020126       0.00000000
Si       0.83862549       0.38749023       3.67915488       0.00000000
Si      -3.03912756       1.58026032      -1.80736580       0.00000000
Si      -0.94426614      -1.19368233       3.56491553       0.00000000
Si       3.53789478       0.67360779      -1.59470008       0.00000000
Si       3.68786052       1.29108024       0.78310457       0.00000000
