10
Lattice="16.28999089631971 0.0 0.0 0.0 16.28999089631971 0.0 0.0 0.0 34.450931932916035" Properties=species:S:1:pos:R:3:initial_magmoms:R:1 pbc="T T T"
Si       0.16410546       1.62013824      -1.68096526       0.00000000
Si       0.85501323      -2.17966716      -0.52544591       0.00000000
Si      -2.35799379      -0.45199863       0.06046142       0.00000000
Si       1.17271710       0.99641043       1.87516527       0.00000000
Si       1.55320263      -1.09662651       2.90955508       0.00000000
Si      -0.30641490       3.67126101      -0.64633430       0.00000000
Si       2.24958384      -2.70648576       1.30837822       0.00000000
Si      -3.35973105       0.43492671      -1.91753994       0.00000000
Si      -0.92787840      -3.76083972      -0.63968526       0.00000000
Si      -3.43474650       0.36584082       1.96298075       0.00000000
