10
Lattice="16.28999089631971 0.0 0.0 0.0 16.28999089631971 0.0 0.0 0.0 34.450931932916035" Properties=species:S:1:pos:R:3:initial_magmoms:R:1 pbc="T T T"
Si       0.46877733       0.73697589      -2.20083011       0.00000000
Si      -2.17989522       0.79177545       0.50546436       0.00000000
Si       1.18985418       0.92579328       1.86486444       0.00000000
Si       0.42189471      -2.37421863       0.15496038       0.00000000
Si       2.79521739       0.87153129      -2.13020566       0.00000000
Si      -2.87212248      -0.50497371       2.28265112       0.00000000
Si       0.94628610       3.21061239       1.61326914       0.00000000
Si      -0.46068120      -2.93873229       2.29122941       0.00000000
Si       3.93444225      -0.01363473      -0.29410777       0.00000000
Si      -3.58094925       0.98306892      -1.36777166       0.00000000
