10
Lattice="16.28999089631971 0.0 0.0 0.0 16.28999089631971 0.0 0.0 0.0 34.450931932916035" Properties=species:S:1:pos:R:3:initial_magmoms:R:1 pbc="T T T"
Si      -1.35645201       1.35777150      -1.35474920       0.00000000
Si      -1.35633798      -1.35822762       1.35846991       0.00000000
Si       1.35812988       1.35713619       1.35788424       0.00000000
Si       1.35832536      -1.35944937      -1.35888332       0.00000000
Si      -0.00814500       2.69301183      -2.71392536       0.00000000
Si      -0.01326006      -2.70213633      -2.72149423       0.00000000
Si      -2.71164969      -2.71469592       0.00093018       0.00000000
Si      -2.71313208       2.71376740       0.00006890       0.00000000
Si      -2.71423980      -0.00055386       2.71535507       0.00000000
Si       2.71606428       2.71392540       0.00048231       0.00000000
