10
Lattice="16.28999089631971 0.0 0.0 0.0 16.28999089631971 0.0 0.0 0.0 34.450931932916035" Properties=species:S:1:pos:R:3:initial_magmoms:R:1 pbc="T T T"
Si      -0.87972516       1.99161770       0.71702765       0.00000000
Si      -0.31193721      -2.11245462       0.85910337       0.00000000
Si       0.00518022       0.00109143      -2.41811226       0.00000000
Si       2.15612811       0.89034838      -0.88849003       0.00000000
Si       0.42204132      -0.61721181       2.72100503       0.00000000
Si      -1.18017792       1.04527133       2.91623857       0.00000000
Si      -1.76502150       1.78310896      -2.17788578       0.00000000
Si      -2.41684956      -2.42919738      -0.49733393       0.00000000
Si       1.41695307       3.15355571      -1.02560482       0.00000000
Si       3.49544304      -0.31508118       0.87905047       0.00000000
