10
Lattice="16.28999089631971 0.0 0.0 0.0 16.28999089631971 0.0 0.0 0.0 34.450931932916035" Properties=species:S:1:pos:R:3:initial_magmoms:R:1 pbc="T T T"
Si      -1.35176049      -1.33729497      -1.37421399       0.00000000
Si      -1.35303111       1.35480672       1.35602389       0.00000000
Si       1.36115982      -1.35886293       1.35519707       0.00000000
Si       1.35625653       1.34750880      -1.38127299       0.00000000
Si       0.06548580      -2.63335995      -2.75600719       0.00000000
Si       2.67625152      -0.14108769      -2.73157113       0.00000000
Si      -2.70842427       2.71041165      -0.00330729       0.00000000
Si      -2.71156824      -0.00203625       2.71352917       0.00000000
Si       0.00294849       2.71262709       2.71359807       0.00000000
Si      -2.71199178      -2.71621578      -0.00871609       0.00000000
