10
Lattice="16.28999089631971 0.0 0.0 0.0 16.28999089631971 0.0 0.0 0.0 34.450931932916035" Properties=species:S:1:pos:R:3:initial_magmoms:R:1 pbc="T T T"
Si       1.35667291       1.35786924       1.35733303       0.00000000
Si      -1.35845862      -1.35698958       1.35740193       0.00000000
Si       1.35942103      -1.35896067      -1.35509371       0.00000000
Si      -1.35974553       1.35889551      -1.36033026       0.00000000
Si       0.01263857       2.70127296      -2.70658386       0.00000000
Si       2.70803755      -0.01299942      -2.70851656       0.00000000
Si       2.71214263      -2.71518462      -0.00010335       0.00000000
Si      -2.71515498      -2.71337643      -0.00068902       0.00000000
Si       2.71450468       0.00070047       2.71518282       0.00000000
Si      -0.00084184      -2.71466334       2.71528617       0.00000000
