10
Lattice="16.28999089631971 0.0 0.0 0.0 16.28999089631971 0.0 0.0 0.0 34.450931932916035" Properties=species:S:1:pos:R:3:initial_magmoms:R:1 pbc="T T T"
Si       1.50813034       1.15409763      -1.31267271       0.00000000
Si       1.40274819      -1.22859180       1.37720089       0.00000000
Si      -1.11231378      -1.27014759      -1.61877238       0.00000000
Si      -1.31999499       1.48859649       1.35029814       0.00000000
Si      -0.00373041       1.83671379      -2.91533392       0.00000000
Si      -2.61076572      -2.49227226      -0.02443606       0.00000000
Si       2.65226028      -0.55711800      -2.55366784       0.00000000
Si       0.04305447      -2.57740054       2.72836719       0.00000000
Si       2.62445488       2.68688889       0.05010202       0.00000000
Si       2.78683360      -2.56959437       0.00520554       0.00000000
