10
Lattice="16.28999089631971 0.0 0.0 0.0 16.28999089631971 0.0 0.0 0.0 34.450931932916035" Properties=species:S:1:pos:R:3:initial_magmoms:R:1 pbc="T T T"
Si       1.35669636       1.35638685       1.35809095       0.00000000
Si      -1.35826020      -1.35815106       1.35829765       0.00000000
Si      -1.36115982       1.35886293      -1.35519707       0.00000000
Si       1.35814617      -1.35962530      -1.35840101       0.00000000
Si       2.71783989      -0.01081656      -2.70956731       0.00000000
Si      -2.71419093       2.71366965       0.00082682       0.00000000
Si       2.71515498       2.71337643       0.00068902       0.00000000
Si       2.71431314      -0.00128691       2.71597519       0.00000000
Si      -0.00050499       2.71420722       2.71635415       0.00000000
Si      -0.00063531      -2.71608717       2.71532062       0.00000000
