10
Lattice="16.28999089631971 0.0 0.0 0.0 16.28999089631971 0.0 0.0 0.0 34.450931932916035" Properties=species:S:1:pos:R:3:initial_magmoms:R:1 pbc="T T T"
Si      -1.35728280       1.35696189       1.35788424       0.00000000
Si       1.35762489      -1.35793611       1.35702297       0.00000000
Si      -1.35720135      -1.35851174      -1.35767754       0.00000000
Si       1.35826020       1.35815106      -1.35829765       0.00000000
Si       0.00037467       2.71545015       2.71297795       0.00000000
Si       2.71560816      -0.00144004       2.71318466       0.00000000
Si      -2.71446786       2.71497774       0.00003445       0.00000000
Si       2.71495656       2.71453791      -0.00020671       0.00000000
Si      -2.71513575      -2.71530095      -0.00027561       0.00000000
Si      -0.00289962       2.71701399      -2.71349472       0.00000000
