10
Lattice="16.28999089631971 0.0 0.0 0.0 16.28999089631971 0.0 0.0 0.0 34.450931932916035" Properties=species:S:1:pos:R:3:initial_magmoms:R:1 pbc="T T T"
Si       1.35532325      -1.35217981       1.36005465       0.00000000
Si      -1.35798327      -1.35649608      -1.35616169       0.00000000
Si       1.35696518       1.35830418      -1.35550713       0.00000000
Si      -1.35749457       1.35849966       1.35984795       0.00000000
Si       0.00017919      -2.71374688      -2.71290905       0.00000000
Si       2.71434473       0.00091061      -2.71294350       0.00000000
Si       2.71486438      -2.71350253       0.00127469       0.00000000
Si      -2.71560816       0.00144004      -2.71318466       0.00000000
Si      -2.71451673      -2.71438219       0.00165365       0.00000000
Si       2.70409506       0.00717900       2.72513914       0.00000000
