10
Lattice="16.28999089631971 0.0 0.0 0.0 16.28999089631971 0.0 0.0 0.0 34.450931932916035" Properties=species:S:1:pos:R:3:initial_magmoms:R:1 pbc="T T T"
Si      -0.86152923       0.10280130       2.20689348       0.00000000
Si       0.63921960       1.99878137      -1.12444460       0.00000000
Si      -1.98226494      -0.80684696      -1.09574695       0.00000000
Si       2.22048990      -0.68057828       0.67995842       0.00000000
Si      -0.05996349      -2.06191557       2.57076443       0.00000000
Si      -1.40576184       3.10492124      -0.74131557       0.00000000
Si       0.04707810       2.20103801       2.72207301       0.00000000
Si      -2.75589333       1.39308659      -1.74673213       0.00000000
Si       2.87534790       2.38508243      -0.34733449       0.00000000
Si       2.13820911      -2.71801161       1.74969491       0.00000000
