10
Lattice="16.28999089631971 0.0 0.0 0.0 16.28999089631971 0.0 0.0 0.0 34.450931932916035" Properties=species:S:1:pos:R:3:initial_magmoms:R:1 pbc="T T T"
Si       1.11231378       1.27014759       1.61877238       0.00000000
Si      -0.71011368       1.58723244      -1.73681025       0.00000000
Si      -1.49845194      -1.22212467       1.59433632       0.00000000
Si       2.02035096      -0.83655666      -1.59800737       0.00000000
Si       1.10858337       3.10686138      -1.29656155       0.00000000
Si       2.62044412       2.42424522       0.30609967       0.00000000
Si       2.67744625      -2.59917848       0.07816921       0.00000000
Si       2.51506197       0.04155579       2.99597327       0.00000000
Si      -2.73800691      -2.31113723      -1.64737558       0.00000000
Si       3.76457406       0.71302959      -0.93489546       0.00000000
