10
Lattice="16.28999089631971 0.0 0.0 0.0 16.28999089631971 0.0 0.0 0.0 34.450931932916035" Properties=species:S:1:pos:R:3:initial_magmoms:R:1 pbc="T T T"
Si       1.35250983      -1.35827649      -1.35747083       0.00000000
Si      -1.36091547       1.35389448      -1.35619614       0.00000000
Si       1.35355239       1.35459495       1.37362833       0.00000000
Si      -1.34873055      -1.36870209       1.37273260       0.00000000
Si      -2.52442872       0.08350254       2.82373776       0.00000000
Si       2.70939571       2.71018359       0.00558105       0.00000000
Si       2.71123045      -0.00205254      -2.71452825       0.00000000
Si      -0.00304623       2.71220355      -2.71425264       0.00000000
Si       2.71299318      -2.71494027       0.00706244       0.00000000
Si      -0.00353493      -2.71681362      -2.71370142       0.00000000
