10
Lattice="16.28999089631971 0.0 0.0 0.0 16.28999089631971 0.0 0.0 0.0 34.450931932916035" Properties=species:S:1:pos:R:3:initial_magmoms:R:1 pbc="T T T"
Si       2.16138882      -0.89599887       0.39735727       0.00000000
Si      -1.17305919       0.08619039      -2.20861603       0.00000000
Si      -1.47835008      -0.70537329       1.93827942       0.00000000
Si       1.23226749       2.28420009      -0.15616616       0.00000000
Si      -1.08825345       1.53930726       2.60177028       0.00000000
Si      -2.65815333       2.54861937       0.17387395       0.00000000
Si       1.11915299       2.74325229       2.37911379       0.00000000
Si       0.57057354       1.09820664      -3.66044801       0.00000000
Si       3.12706817       0.16682589       2.48281115       0.00000000
Si      -2.80811907       1.93114692      -2.20393070       0.00000000
