10
Lattice="16.28999089631971 0.0 0.0 0.0 16.28999089631971 0.0 0.0 0.0 34.450931932916035" Properties=species:S:1:pos:R:3:initial_magmoms:R:1 pbc="T T T"
Si       0.39009663       2.24468055       0.66349087       0.00000000
Si       1.01975400      -1.01431314       1.92267313       0.00000000
Si       1.47835008       0.70537329      -1.93827942       0.00000000
Si      -0.28399986       2.13917022       2.92243974       0.00000000
Si      -3.00195378       1.87320339      -0.95983795       0.00000000
Si       3.07667505       0.19482840       2.25819095       0.00000000
Si      -1.17980325       3.25399266      -1.76440546       0.00000000
Si       3.63973890      -0.19062558      -1.54092214       0.00000000
Si      -3.32117262      -2.34238797       0.38433481       0.00000000
Si       1.50741144      -3.34192608       1.80664233       0.00000000
