10
Lattice="16.28999089631971 0.0 0.0 0.0 16.28999089631971 0.0 0.0 0.0 34.450931932916035" Properties=species:S:1:pos:R:3:initial_magmoms:R:1 pbc="T T T"
Si      -1.36048335       1.35666378      -1.36453327       0.00000000
Si       1.35679520      -1.36129014      -1.36442992       0.00000000
Si      -1.35895209      -1.36560699       1.38661633       0.00000000
Si       1.36462581       1.35135324       1.39615925       0.00000000
Si       2.71347364       2.71393029      -0.00279053       0.00000000
Si      -2.71299318       2.71494027      -0.00706244       0.00000000
Si       2.71420669      -2.71715571      -0.00616672       0.00000000
Si      -2.71616973      -2.71717200      -0.00578776       0.00000000
Si      -0.00176274       2.71288773      -2.72159069       0.00000000
Si       2.71363654      -0.00200367      -2.72124618       0.00000000
