10
Lattice="16.28999089631971 0.0 0.0 0.0 16.28999089631971 0.0 0.0 0.0 34.450931932916035" Properties=species:S:1:pos:R:3:initial_magmoms:R:1 pbc="T T T"
Si       1.80170658      -0.20326662       1.42347885       0.00000000
Si      -1.65600882      -1.08732492       1.18842001       0.00000000
Si      -0.11792331      -0.34350723      -2.31930694       0.00000000
Si      -0.21998016       2.31107859       0.43756153       0.00000000
Si       3.29957194       1.33970589       0.46484668       0.00000000
Si      -0.42083586       1.91348856      -3.07791688       0.00000000
Si      -1.35920502       3.19624461      -1.39853636       0.00000000
Si       0.96845679       1.03141764       3.48178538       0.00000000
Si       1.93359042       3.23327178       0.59706944       0.00000000
Si      -1.65216438      -3.39431472       0.63434536       0.00000000
