10
Lattice="16.28999089631971 0.0 0.0 0.0 16.28999089631971 0.0 0.0 0.0 34.450931932916035" Properties=species:S:1:pos:R:3:initial_magmoms:R:1 pbc="T T T"
Si       1.34884784       1.36257705      -1.39894977       0.00000000
Si      -1.36462581      -1.35135324      -1.39615925       0.00000000
Si      -1.39561710       1.37816658       1.44855914       0.00000000
Si       1.46509328      -1.37026593       1.61309689       0.00000000
Si       2.70381746      -2.69451261      -0.03197048       0.00000000
Si       2.69290316       2.71207323      -0.01329807       0.00000000
Si      -2.72357790      -2.71696023      -0.00954291       0.00000000
Si      -2.72406660       2.71818198      -0.02959337       0.00000000
Si       2.70753158       0.00498474      -2.76031356       0.00000000
Si      -0.00783060      -2.71264338      -2.76058917       0.00000000
