10
Lattice="16.28999089631971 0.0 0.0 0.0 16.28999089631971 0.0 0.0 0.0 34.450931932916035" Properties=species:S:1:pos:R:3:initial_magmoms:R:1 pbc="T T T"
Si       1.27286849      -1.27926999       1.45043672       0.00000000
Si       0.93704967       1.89736146      -1.08891292       0.00000000
Si      -1.06634340      -1.56719574      -1.60584638       0.00000000
Si      -1.45314945       1.42759044       1.43024846       0.00000000
Si       1.12332582       0.81603126      -3.20971041       0.00000000
Si       2.48462152      -2.78925525       0.11966538       0.00000000
Si      -2.77913916      -2.57598657      -0.05150762       0.00000000
Si       2.61670898       0.09254349       2.79737934       0.00000000
Si      -0.09951561      -2.62164744       2.79669032       0.00000000
Si      -0.91944018       3.52950543      -1.22257158       0.00000000
