10
Lattice="16.28999089631971 0.0 0.0 0.0 16.28999089631971 0.0 0.0 0.0 34.450931932916035" Properties=species:S:1:pos:R:3:initial_magmoms:R:1 pbc="T T T"
Si       1.23872418      -1.32424668      -1.64506737       0.00000000
Si      -0.99188181      -1.80496458       1.37900267       0.00000000
Si      -1.46509328       1.37026593      -1.61309689       0.00000000
Si       1.97584668       0.98658756       1.37796915       0.00000000
Si       2.66649381      -2.55526569      -0.25690074       0.00000000
Si       0.79249221      -3.58521723       0.95308556       0.00000000
Si       2.63575458       2.72758131      -0.21983152       0.00000000
Si      -2.82350402      -2.73127914      -0.08781547       0.00000000
Si      -2.86071038       2.74843251      -0.16453774       0.00000000
Si       2.59445943       0.01498680      -3.01576736       0.00000000
