10
Lattice="16.28999089631971 0.0 0.0 0.0 16.28999089631971 0.0 0.0 0.0 34.450931932916035" Properties=species:S:1:pos:R:3:initial_magmoms:R:1 pbc="T T T"
Si       0.87481765       1.83326031       1.23103584       0.00000000
Si      -1.32844950       1.34001540      -1.47815251       0.00000000
Si       1.39561710      -1.37816658      -1.44855914       0.00000000
Si      -1.74363273      -1.01201625       1.45183198       0.00000000
Si      -2.63296899       2.65126266       0.03589789       0.00000000
Si       0.66169395       1.18599345       3.50428185       0.00000000
Si      -3.37869261       0.83294028       1.45651731       0.00000000
Si      -0.57057354      -1.09820664       3.66044801       0.00000000
Si      -2.68200189      -0.01457955      -2.85178084       0.00000000
Si       0.02739382       2.69560404      -2.84619978       0.00000000
