10
Lattice="16.28999089631971 0.0 0.0 0.0 16.28999089631971 0.0 0.0 0.0 34.450931932916035" Properties=species:S:1:pos:R:3:initial_magmoms:R:1 pbc="T T T"
Si      -0.93836916       1.28275605       1.67938052       0.00000000
Si      -1.73607417      -0.10324602      -1.55949121       0.00000000
Si       1.94199606       1.04808231      -0.83874286       0.00000000
Si       0.30291255      -2.25699579       0.75860995       0.00000000
Si       2.93656572      -1.15188219      -0.83447094       0.00000000
Si       0.20085570       0.39759003       3.51547841       0.00000000
Si       0.42083586      -1.91348856       3.07791688       0.00000000
Si       1.79571186       0.85665852      -3.12456347       0.00000000
Si      -3.68839809      -0.47004795      -0.18779213       0.00000000
Si       1.31077485      -1.39751910      -3.20369730       0.00000000
