10
Lattice="16.28999089631971 0.0 0.0 0.0 16.28999089631971 0.0 0.0 0.0 34.450931932916035" Properties=species:S:1:pos:R:3:initial_magmoms:R:1 pbc="T T T"
Si      -1.35584928      -1.35808101      -1.35657510       0.00000000
Si      -1.35777150       1.35834165       1.35709187       0.00000000
Si       1.35804843      -1.35772263       1.35764308       0.00000000
Si       1.35793440       1.35868374      -1.35757418       0.00000000
Si      -0.00027693      -2.71568961      -2.71201333       0.00000000
Si      -2.71401174       0.00312768       2.71421819       0.00000000
Si       2.71410948       0.00125433       2.71432154       0.00000000
Si       2.71438641      -2.71477737      -0.00010335       0.00000000
Si      -2.71492398      -2.71445157       0.00003445       0.00000000
Si       0.00089595       2.71507059       2.71497611       0.00000000
