10
Lattice="16.28999089631971 0.0 0.0 0.0 16.28999089631971 0.0 0.0 0.0 34.450931932916035" Properties=species:S:1:pos:R:3:initial_magmoms:R:1 pbc="T T T"
Si       1.35653346       1.35788612      -1.35781534       0.00000000
Si      -1.35964485       1.35499833       1.35840101       0.00000000
Si      -1.35866745      -1.35672894      -1.35788424       0.00000000
Si       1.35935163      -1.35972630       1.35812540       0.00000000
Si      -2.71490769      -2.71194291      -0.00075792       0.00000000
Si       2.71321353      -2.71381626      -0.00065457       0.00000000
Si       2.71451673       2.71438219      -0.00165365       0.00000000
Si       2.71469592       0.00063531      -2.71456270       0.00000000
Si      -0.00089595      -2.71507059      -2.71497611       0.00000000
Si      -0.00109143       2.71582223      -2.71483831       0.00000000
