10
Lattice="16.28999089631971 0.0 0.0 0.0 16.28999089631971 0.0 0.0 0.0 34.450931932916035" Properties=species:S:1:pos:R:3:initial_magmoms:R:1 pbc="T T T"
Si      -1.35386190       1.35408996       1.35877997       0.00000000
Si      -1.35606105      -1.35897696      -1.35667846       0.00000000
Si       1.35845033       1.35640314      -1.35695407       0.00000000
Si       1.35638089      -1.36099692       1.36315524       0.00000000
Si      -2.71321353       2.71381626       0.00065457       0.00000000
Si       0.00148239       2.71445157      -2.71390813       0.00000000
Si      -2.71410948      -0.00125433      -2.71432154       0.00000000
Si       0.00027693      -2.71603170      -2.71442489       0.00000000
Si       2.71609101      -0.00065160      -2.71445935       0.00000000
Si       2.71616758       2.71469592       0.00027561       0.00000000
