10
Lattice="16.28999089631971 0.0 0.0 0.0 16.28999089631971 0.0 0.0 0.0 34.450931932916035" Properties=species:S:1:pos:R:3:initial_magmoms:R:1 pbc="T T T"
Si      -1.25900523       1.41454934      -1.34007310       0.00000000
Si       1.45826451      -1.34715042      -1.31985039       0.00000000
Si      -1.70559558      -0.83393397       1.47436291       0.00000000
Si       1.97543943       0.70949207       1.20282051       0.00000000
Si       0.44535231       0.05532298       3.00398514       0.00000000
Si      -0.29382273       2.31853031       2.86687035       0.00000000
Si      -2.60141526       2.68826444       0.19606036       0.00000000
Si      -2.60913672       0.02555514      -2.69764728       0.00000000
Si      -2.63391381      -2.68328880       0.15068846       0.00000000
Si       0.10985976      -2.68916949      -2.69792289       0.00000000
