10
Lattice="16.28999089631971 0.0 0.0 0.0 16.28999089631971 0.0 0.0 0.0 34.450931932916035" Properties=species:S:1:pos:R:3:initial_magmoms:R:1 pbc="T T T"
Si       0.84699855      -0.62382555      -2.08486821       0.00000000
Si      -0.64356903       2.22289172       0.38609181       0.00000000
Si       1.22272740      -1.46570904       1.41276461       0.00000000
Si      -2.22640317      -0.92595618      -0.24291366       0.00000000
Si      -0.24149925      -3.10746411       0.64106330       0.00000000
Si       0.38812554      -2.94532974      -1.68351463       0.00000000
Si      -1.43778798      -0.48610989       3.09541796       0.00000000
Si      -2.19830292      -2.28286431       1.64148447       0.00000000
Si      -1.75167999       1.89257776       2.50885607       0.00000000
Si       0.82530027      -0.87413769       3.64628867       0.00000000
