10
Lattice="16.28999089631971 0.0 0.0 0.0 16.28999089631971 0.0 0.0 0.0 34.450931932916035" Properties=species:S:1:pos:R:3:initial_magmoms:R:1 pbc="T T T"
Si      -0.93648278       1.37370312       1.64627315       0.00000000
Si       1.92719171      -0.90745074       0.97689117       0.00000000
Si       1.22940956       1.05629247      -1.69595142       0.00000000
Si      -1.51487619      -1.53855792      -0.97489302       0.00000000
Si      -1.63361400      -0.60031908       2.77547198       0.00000000
Si       2.54428949      -2.05633557      -0.99167063       0.00000000
Si       2.02369367      -0.75733839      -2.92915767       0.00000000
Si      -0.95055734      -3.58578086      -0.01801785       0.00000000
Si       3.32404292       0.96500331       1.33590453       0.00000000
Si      -0.26567850       2.43284634      -2.82594262       0.00000000
