10
Lattice="16.28999089631971 0.0 0.0 0.0 16.28999089631971 0.0 0.0 0.0 34.450931932916035" Properties=species:S:1:pos:R:3:initial_magmoms:R:1 pbc="T T T"
Si       0.92646117      -0.24079878       2.10154247       0.00000000
Si      -1.40782090       1.87885602      -0.11241345       0.00000000
Si      -1.41344095      -1.76857272      -0.75885110       0.00000000
Si       1.53253062       1.68982686      -0.82499693       0.00000000
Si       2.82080898      -1.36402686       1.21270793       0.00000000
Si      -1.69367863       2.05864875       2.17964278       0.00000000
Si       0.58857399       2.02717647       2.86518226       0.00000000
Si       0.25238097       3.60012258      -0.23536890       0.00000000
Si      -2.47752071       1.48054923      -2.19759173       0.00000000
Si       1.36818081       1.37492487      -3.10916389       0.00000000
