10
Lattice="16.28999089631971 0.0 0.0 0.0 16.28999089631971 0.0 0.0 0.0 34.450931932916035" Properties=species:S:1:pos:R:3:initial_magmoms:R:1 pbc="T T T"
Si      -1.35872062      -1.35622395       1.35705742       0.00000000
Si       1.35779557       1.35749457       1.35681626       0.00000000
Si      -1.35793870       1.35720135      -1.35747083       0.00000000
Si       1.35756751      -1.35772263      -1.35750528       0.00000000
Si      -2.71123045       0.00205254       2.71452825       0.00000000
Si      -2.71427668       2.71425609       0.00027561       0.00000000
Si      -2.71476538      -2.71476108       0.00082682       0.00000000
Si       2.71494316       2.71511946       0.00020671       0.00000000
Si      -0.00062656       2.71494027      -2.71528617       0.00000000
Si       2.71539928      -2.71489140       0.00034451       0.00000000
