10
Lattice="16.28999089631971 0.0 0.0 0.0 16.28999089631971 0.0 0.0 0.0 34.450931932916035" Properties=species:S:1:pos:R:3:initial_magmoms:R:1 pbc="T T T"
Si      -1.93145154      -0.90880281       1.14838801       0.00000000
Si       1.28225106      -1.40815647      -1.54450504       0.00000000
Si      -1.39528737       1.31566185      -1.55273882       0.00000000
Si       2.02007403       0.91688265       1.23213827       0.00000000
Si      -2.71732203       2.64507246      -0.08984808       0.00000000
Si       3.52800675      -1.00247031       1.16120376       0.00000000
Si       2.69019576      -2.76291432      -0.13794161       0.00000000
Si      -2.80626920      -2.74206312      -0.08264783       0.00000000
Si       2.74699899       2.80743489      -0.15985241       0.00000000
Si       2.65079025      -0.04162095      -2.92901987       0.00000000
