10
Lattice="16.28999089631971 0.0 0.0 0.0 16.28999089631971 0.0 0.0 0.0 34.450931932916035" Properties=species:S:1:pos:R:3:initial_magmoms:R:1 pbc="T T T"
Si      -1.61205188      -1.47717720      -0.77952167       0.00000000
Si      -0.49032574       1.68523308      -1.55263547       0.00000000
Si       1.73662803      -1.52858844      -0.55807096       0.00000000
Si      -0.31703598       0.71070012       2.27362497       0.00000000
Si       1.11231378      -3.28994469       0.93172597       0.00000000
Si      -2.65856777       2.34232281      -0.93058909       0.00000000
Si      -1.09874910      -3.51008775       0.23092473       0.00000000
Si       0.93315636      -2.36302740      -2.82263533       0.00000000
Si       0.92719422       2.76273513       2.55574381       0.00000000
Si       0.76870881       3.58984359      -1.32064276       0.00000000
