10
Lattice="16.28999089631971 0.0 0.0 0.0 16.28999089631971 0.0 0.0 0.0 34.450931932916035" Properties=species:S:1:pos:R:3:initial_magmoms:R:1 pbc="T T T"
Si      -1.63463864       0.32576742       1.61237342       0.00000000
Si      -0.51330279       2.03291055      -1.01044640       0.00000000
Si       2.21106288       0.22014306       0.70080125       0.00000000
Si       0.10024540      -1.86421131      -1.42110174       0.00000000
Si      -3.26042951       0.08013051      -0.75685295       0.00000000
Si      -0.37892658       1.38958587      -3.23845831       0.00000000
Si       2.83537713       1.98149931      -0.78899568       0.00000000
Si       1.59533346      -3.24076518      -0.29111054       0.00000000
Si       1.09874910       3.51008775      -0.23092473       0.00000000
Si      -2.77549250       2.33430813      -0.67771911       0.00000000
