10
Lattice="16.28999089631971 0.0 0.0 0.0 16.28999089631971 0.0 0.0 0.0 34.450931932916035" Properties=species:S:1:pos:R:3:initial_magmoms:R:1 pbc="T T T"
Si      -0.16434981      -0.31490199      -2.28416697       0.00000000
Si       2.23329384       0.31170915       0.73766377       0.00000000
Si      -1.28014965       1.91029572       0.58962803       0.00000000
Si      -1.53253062      -1.68982686       0.82499693       0.00000000
Si      -2.94035152       0.18902916       0.71258347       0.00000000
Si       0.83621457      -2.44944585      -2.14322812       0.00000000
Si      -0.60606945      -1.93062564       2.92653940       0.00000000
Si      -0.25573671       2.36035584       2.65620279       0.00000000
Si       2.02883805       2.33689824       1.90369066       0.00000000
Si       3.35049462       0.58525083      -1.40422077       0.00000000
