10
Lattice="16.28999089631971 0.0 0.0 0.0 16.28999089631971 0.0 0.0 0.0 34.450931932916035" Properties=species:S:1:pos:R:3:initial_magmoms:R:1 pbc="T T T"
Si      -0.28585773       0.17979273       2.29205623       0.00000000
Si       1.40782090      -1.87885602       0.11241345       0.00000000
Si      -1.06969981      -0.39830679      -2.08517827       0.00000000
Si       1.66020187       1.72126656      -0.12295544       0.00000000
Si       2.94035152      -0.18902916      -0.71258347       0.00000000
Si      -2.06426947       1.80165771      -2.08945019       0.00000000
Si      -1.87403485      -2.53443078      -1.56910302       0.00000000
Si       1.99639489       0.14832045       2.97759571       0.00000000
Si      -1.65183925       2.07335862       2.42427898       0.00000000
Si      -0.00562005      -3.64742874      -0.64643765       0.00000000
