10
Lattice="16.28999089631971 0.0 0.0 0.0 16.28999089631971 0.0 0.0 0.0 34.450931932916035" Properties=species:S:1:pos:R:3:initial_magmoms:R:1 pbc="T T T"
Si      -1.35677455       1.35578412      -1.35423244       0.00000000
Si      -1.35617182      -1.35860229       1.35716077       0.00000000
Si       1.35837423       1.35646830       1.35726412       0.00000000
Si       1.36060596      -1.35966114      -1.35957234       0.00000000
Si      -2.69763509       0.01132155      -2.71830407       0.00000000
Si      -2.71215691       2.71373449       0.00117133       0.00000000
Si       2.69682579       0.02845863      -2.72994160       0.00000000
Si      -2.71381251      -0.00154755       2.71466605       0.00000000
Si       0.00128691       2.71405367       2.71470050       0.00000000
Si       2.71702539       2.71301806      -0.00065457       0.00000000
