10
Lattice="16.28999089631971 0.0 0.0 0.0 16.28999089631971 0.0 0.0 0.0 34.450931932916035" Properties=species:S:1:pos:R:3:initial_magmoms:R:1 pbc="T T T"
Si      -1.35532325       1.35217981      -1.36005465       0.00000000
Si       1.34877181       1.35935882       1.36508449       0.00000000
Si       1.35954113      -1.36132272      -1.35877997       0.00000000
Si      -1.36208360      -1.37990961       1.37779689       0.00000000
Si       2.66562609      -0.00423540       2.75163192       0.00000000
Si      -2.71281782       2.71067948      -0.00020671       0.00000000
Si       0.00164194       2.71048400      -2.71556178       0.00000000
Si       2.71755861       2.71069577      -0.00058567       0.00000000
Si      -2.71330652      -0.00431626      -2.71621634       0.00000000
Si      -2.71048835      -2.72192868      -0.00027561       0.00000000
