10
Lattice="16.28999089631971 0.0 0.0 0.0 16.28999089631971 0.0 0.0 0.0 34.450931932916035" Properties=species:S:1:pos:R:3:initial_magmoms:R:1 pbc="T T T"
Si      -1.35055503      -1.35760860      -1.36914970       0.00000000
Si       1.36497168       1.35868476      -1.36584241       0.00000000
Si       1.46017044      -1.21971375       1.40480644       0.00000000
Si      -1.39983228       1.35917244       1.38334349       0.00000000
Si       2.50426170       0.46390662       2.78377466       0.00000000
Si      -2.68211592      -2.71148679       0.01192003       0.00000000
Si       2.72688084      -2.69148267      -0.00633898       0.00000000
Si      -2.70591724       0.00208512      -2.72706839       0.00000000
Si      -2.71668656       2.72276666      -0.00320394       0.00000000
Si       0.00845451      -2.71231758      -2.72734400       0.00000000
