10
Lattice="16.290000149 0.0 0.0 0.0 16.290000149 0.0 0.0 0.0 29.1751946751" Properties=species:S:1:pos:R:3:initial_magmoms:R:1 pbc="T T T"
Si      -0.69064714       2.04887966       0.76844545       0.00000000
Si       2.05612382      -0.61073491       0.89611610       0.00000000
Si      -1.24165639      -1.78849052       0.84132509       0.00000000
Si      -0.64389484      -0.67855996      -2.14618567       0.00000000
Si      -0.69340015      -2.82544677      -1.16887500       0.00000000
H        0.67166929       2.30639198      -2.13757899       0.00000000
Si      -1.29163411       1.53708043       2.95369671       0.00000000
Si      -3.52996158       0.77553921      -0.77463059       0.00000000
Si       1.53412705      -1.86318017       2.82550090       0.00000000
Si       1.07171911       3.53718294       0.44340461       0.00000000
