10
Lattice="16.290000149 0.0 0.0 0.0 16.290000149 0.0 0.0 0.0 29.1751946751" Properties=species:S:1:pos:R:3:initial_magmoms:R:1 pbc="T T T"
Si       1.02856690       1.11190654      -0.21052820       0.00000000
H       -0.51373773       1.54103401       1.81927761       0.00000000
Si      -2.21599388      -0.77620222      -1.11991902       0.00000000
Si      -0.97107949       0.26357220       2.48765215       0.00000000
Si       1.03451275      -1.10706841       2.40365676       0.00000000
Si      -0.54117009      -2.45557091      -1.37689414       0.00000000
Si      -0.18176382      -2.72166806       0.98539220       0.00000000
Si       2.18970671       0.95757508       1.81046671       0.00000000
Si       2.52111047       0.03652218      -1.63057246       0.00000000
Si      -0.22783194       2.75191860      -1.37461847       0.00000000
