10
Lattice="16.290000149 0.0 0.0 0.0 16.290000149 0.0 0.0 0.0 29.1751946751" Properties=species:S:1:pos:R:3:initial_magmoms:R:1 pbc="T T T"
Si      -1.51977556       1.31595834       1.19851700       0.00000000
Si       1.41325525       1.28518653      -1.37899475       0.00000000
Si      -1.23062806      -1.43356563      -1.42424548       0.00000000
Si       0.98448616      -0.86259297       1.98350479       0.00000000
Si      -0.08008164       2.64458704       2.40972520       0.00000000
Si      -0.75654019      -1.18415432       3.48185526       0.00000000
Si       1.09907002      -3.16771759       1.75144529       0.00000000
Si      -2.67584429      -0.12898096       2.70042684       0.00000000
Si      -2.57266343      -2.81393137      -0.11109914       0.00000000
Si       0.06476904       2.61933754      -2.78453893       0.00000000
