10
Lattice="16.290000149 0.0 0.0 0.0 16.290000149 0.0 0.0 0.0 29.1751946751" Properties=species:S:1:pos:R:3:initial_magmoms:R:1 pbc="T T T"
Si      -1.45010867       1.39255066      -1.21465963       0.00000000
Si      -1.29895376      -1.29146470       1.47058444       0.00000000
Si       1.36338449       1.39618333       1.31531405       0.00000000
Si       1.43216902      -1.30536821      -1.35591717       0.00000000
Si      -2.62660506      -2.62832441       0.13783529       0.00000000
Si      -0.12791452       2.71140536      -2.58845566       0.00000000
Si       0.09206727      -2.55222176      -2.81478485       0.00000000
Si       2.71068316      -2.67723147       0.02914894       0.00000000
Si       2.65643746       0.04180014       2.74600725       0.00000000
Si       0.01190483       2.72235224       2.72114998       0.00000000
