10
Lattice="16.290000149 0.0 0.0 0.0 16.290000149 0.0 0.0 0.0 29.1751946751" Properties=species:S:1:pos:R:3:initial_magmoms:R:1 pbc="T T T"
Si      -1.36929995       1.34434855      -1.35693830       0.00000000
Si      -1.32948719      -1.39952278       1.34322596       0.00000000
Si       1.29943702      -1.35496963      -1.41873137       0.00000000
Si       1.35782038       1.38074041       1.34914853       0.00000000
Si       2.77623957       0.00889434       2.60464468       0.00000000
Si      -2.73549827      -0.08187354       2.65488437       0.00000000
Si       2.60877836      -2.78254380      -0.12090201       0.00000000
Si      -0.01078398       2.69628824      -2.71084239       0.00000000
Si      -2.70844117       2.70664868       0.01517110       0.00000000
Si      -2.71854038      -0.03189582      -2.70877095       0.00000000
