10
Lattice="16.290000149 0.0 0.0 0.0 16.290000149 0.0 0.0 0.0 29.1751946751" Properties=species:S:1:pos:R:3:initial_magmoms:R:1 pbc="T T T"
Si      -0.91952164       1.03895992      -1.84077973       0.00000000
Si       1.06748371       1.75814714       1.06772460       0.00000000
Si       1.35506737      -1.52813233      -1.15530853       0.00000000
Si      -1.93904759      -1.02929995       0.89579518       0.00000000
H        0.50042880      -1.28560681       2.39963059       0.00000000
Si       0.67587211      -2.67300821       1.78902294       0.00000000
Si      -1.67975966      -1.01041984      -2.72160804       0.00000000
Si      -0.44606907      -2.86698301      -1.76477835       0.00000000
Si      -2.21851883       2.54319482      -0.52092310       0.00000000
Si      -1.21254616      -3.21886819       0.48748833       0.00000000
