10
Lattice="16.290000149 0.0 0.0 0.0 16.290000149 0.0 0.0 0.0 29.1751946751" Properties=species:S:1:pos:R:3:initial_magmoms:R:1 pbc="T T T"
H       -0.60141052      -0.09410733      -1.39927151       0.00000000
Si      -1.71429446       0.44756775       1.52382042       0.00000000
Si       0.48531168      -2.02931048       1.05506257       0.00000000
Si       1.89358220       1.50182398       0.31847643       0.00000000
H        1.51073461      -0.85646305      -1.71494712       0.00000000
Si       0.79198723      -0.94196926      -3.03906333       0.00000000
Si      -2.56657097       2.28459107       0.39366090       0.00000000
Si      -0.33863652       1.47921346       3.15302164       0.00000000
Si       2.07330977      -1.21414258       2.62022423       0.00000000
Si       0.91699669       2.96618097       1.82018205       0.00000000
