10
Lattice="16.290000149 0.0 0.0 0.0 16.290000149 0.0 0.0 0.0 29.1751946751" Properties=species:S:1:pos:R:3:initial_magmoms:R:1 pbc="T T T"
H       -0.89024851      -0.07022619       1.22894673       0.00000000
Si      -0.89213815       1.41863095      -1.59229460       0.00000000
Si       0.32711949      -2.12178881      -0.93115551       0.00000000
Si       1.88364530       1.34394130       0.39188121       0.00000000
H        0.98818399       0.37509354       2.46419529       0.00000000
H       -2.20059983      -1.81312589       0.79432385       0.00000000
Si       0.29157471       2.88763873       1.47690670       0.00000000
Si      -0.34388190       0.38167470      -3.60249469       0.00000000
Si      -1.73942993      -2.81582427      -1.82590038       0.00000000
Si       1.54878805      -3.44453682       0.58607131       0.00000000
