10
Lattice="16.290000149 0.0 0.0 0.0 16.290000149 0.0 0.0 0.0 29.1751946751" Properties=species:S:1:pos:R:3:initial_magmoms:R:1 pbc="T T T"
Si      -1.35433432       1.35767377      -1.30459801       0.00000000
Si       1.38696319       1.35158131       1.29426999       0.00000000
Si       1.36045936      -1.34636851      -1.33569876       0.00000000
Si      -1.34281729      -1.31329981       1.39174431       0.00000000
H       -0.42974649      -2.21679209       2.18831465       0.00000000
Si       2.61381197      -0.18217107       2.53188174       0.00000000
Si      -2.66515805      -0.07095924      -2.62813071       0.00000000
Si      -2.55298511       2.75564901       0.17394251       0.00000000
Si       2.60348411      -2.73704582       0.03314302       0.00000000
Si       0.01645290       2.61270425      -2.73677914       0.00000000
