10
Lattice="16.290000149 0.0 0.0 0.0 16.290000149 0.0 0.0 0.0 29.1751946751" Properties=species:S:1:pos:R:3:initial_magmoms:R:1 pbc="T T T"
Si      -1.19176012      -1.14628773      -1.69254057       0.00000000
Si       0.58024981      -1.76510297       1.48096206       0.00000000
Si      -1.99055657       0.89933833       0.97879861       0.00000000
Si       1.44420560       1.41564988      -1.33849958       0.00000000
H        0.58836223       2.19439334       2.14469774       0.00000000
Si      -2.48060864      -2.58761765      -0.41256643       0.00000000
Si      -2.73430911       2.21618936      -0.81600102       0.00000000
Si      -3.49576887      -0.96087706       0.91397132       0.00000000
Si      -2.62410725       0.48052242      -2.61966991       0.00000000
H       -0.93946060      -0.02040811       3.65077964       0.00000000
