10
Lattice="16.290000149 0.0 0.0 0.0 16.290000149 0.0 0.0 0.0 29.1751946751" Properties=species:S:1:pos:R:3:initial_magmoms:R:1 pbc="T T T"
Si       1.83459611       1.01978659      -0.93881692       0.00000000
Si       1.40761891      -1.36423864       1.25330218       0.00000000
Si      -1.32036967       1.49037283       1.20703615       0.00000000
Si      -1.30297195      -1.17841861      -1.55903517       0.00000000
Si       0.99427645       2.26866108      -2.64378904       0.00000000
Si      -2.67055004       0.09469377       2.51634012       0.00000000
Si      -2.62347194      -2.58119939      -0.21370538       0.00000000
Si       0.05181849      -2.70381422       2.56929310       0.00000000
Si       2.74550034      -2.51760323      -0.30491871       0.00000000
Si       2.82849789       0.09291816       2.48275947       0.00000000
