10
Lattice="16.290000149 0.0 0.0 0.0 16.290000149 0.0 0.0 0.0 29.1751946751" Properties=species:S:1:pos:R:3:initial_magmoms:R:1 pbc="T T T"
Si       0.87527800      -0.86498272       0.88056573       0.00000000
H       -1.87843250      -0.44531973      -1.23524857       0.00000000
Si       0.89546131       0.96884776      -2.07231408       0.00000000
Si      -0.98818399      -0.37509354      -2.46419529       0.00000000
Si      -0.69660928       2.51254519      -0.98728859       0.00000000
Si      -1.46308636       2.16066001       1.26497809       0.00000000
Si       1.89952805      -2.36146358      -0.58913471       0.00000000
Si      -0.52662312      -2.09236907       2.30676594       0.00000000
Si       2.77369833       0.43885260       1.50783241       0.00000000
Si       2.81761617      -0.53717904      -1.77108019       0.00000000
