10
Lattice="16.290000149 0.0 0.0 0.0 16.290000149 0.0 0.0 0.0 29.1751946751" Properties=species:S:1:pos:R:3:initial_magmoms:R:1 pbc="T T T"
Si      -2.05612382       0.61073491      -0.89611610       0.00000000
Si       1.01516023      -1.62674059      -1.32653775       0.00000000
Si      -0.52199676      -1.25244526       1.92938480       0.00000000
Si       1.50521230       1.86021539       0.06482728       0.00000000
Si       2.30400875      -0.18541066      -2.60651189       0.00000000
Si      -3.29778021      -1.17775561      -0.05479102       0.00000000
Si       2.54037665      -2.64211259       0.16650284       0.00000000
Si      -2.11406735       0.29125217       3.01441029       0.00000000
Si       0.76145977       3.17706642      -1.72997234       0.00000000
Si       3.49576887       0.96087706      -0.91397132       0.00000000
