10
Lattice="16.290000149 0.0 0.0 0.0 16.290000149 0.0 0.0 0.0 29.1751946751" Properties=species:S:1:pos:R:3:initial_magmoms:R:1 pbc="T T T"
Si       1.46022649       1.17825571      -1.41738056       0.00000000
Si      -1.39909924      -1.32105385      -1.36171428       0.00000000
Si      -1.33268491       1.43793460       1.31447964       0.00000000
Si       1.38732157      -1.35962857       1.35851960       0.00000000
Si       0.13937724      -2.59836905      -2.55314171       0.00000000
Si       0.06488307       2.35370954      -2.87847430       0.00000000
H       -0.82181422       3.11085246      -1.89952982       0.00000000
Si      -2.67297725       0.02161683       2.67764977       0.00000000
Si       2.68007969       2.67753845      -0.02929481       0.00000000
Si      -2.61353504      -2.75120184       0.08733011       0.00000000
