10
Lattice="16.290000149 0.0 0.0 0.0 16.290000149 0.0 0.0 0.0 29.1751946751" Properties=species:S:1:pos:R:3:initial_magmoms:R:1 pbc="T T T"
Si      -0.11458386       2.30512462       0.23205950       0.00000000
Si       1.60243102       0.07323984      -1.78852696       0.00000000
Si       0.28711125      -0.88703938       2.23995475       0.00000000
Si      -2.12771837      -0.97042789      -0.67587256       0.00000000
H        1.09299385      -2.75279826       0.06739470       0.00000000
H        2.53322534      -1.84388141       0.60839033       0.00000000
Si      -1.85561021       1.98356327       1.73040997       0.00000000
Si      -1.90511552      -0.16332354       2.70772064       0.00000000
Si       3.17980803      -1.01449234      -0.46607373       0.00000000
Si      -1.04427046      -2.38987334      -2.17363953       0.00000000
