10
Lattice="16.290000149 0.0 0.0 0.0 16.290000149 0.0 0.0 0.0 29.1751946751" Properties=species:S:1:pos:R:3:initial_magmoms:R:1 pbc="T T T"
Si      -1.33304329      -1.35364200      -1.38316680       0.00000000
Si       1.33162606      -1.36691835       1.37237198       0.00000000
Si      -1.37101528       1.33960002       1.36496148       0.00000000
Si       1.35079939       1.35271347      -1.37283879       0.00000000
Si       0.00314397       2.72183911       2.67478185       0.00000000
Si      -2.69509907       2.70520702      -0.02663695       0.00000000
Si       2.70324245       0.00390471       2.70241076       0.00000000
Si       2.70143751      -2.70615184      -0.00758555       0.00000000
Si      -2.69224832      -2.71792951      -0.04113702       0.00000000
Si      -2.69355152       0.00008634      -2.73494110       0.00000000
