10
Lattice="16.290000149 0.0 0.0 0.0 16.290000149 0.0 0.0 0.0 29.1751946751" Properties=species:S:1:pos:R:3:initial_magmoms:R:1 pbc="T T T"
H       -1.16092315       1.01040029      -0.02121037       0.00000000
Si      -0.75722437      -1.92647822       1.06603244       0.00000000
Si       0.35878725      -0.73429456      -2.19102794       0.00000000
Si       1.78603725       1.12242011       1.09226094       0.00000000
H        0.88167997       2.42935379       0.88873478       0.00000000
Si       2.62690099      -1.20105194      -2.03473643       0.00000000
H        0.36689967       3.22520174      -1.52729227       0.00000000
Si      -2.31707333      -2.68854072      -0.52739999       0.00000000
Si      -2.80908021       0.57654546       2.48569741       0.00000000
Si      -0.22146255       1.03080840      -3.67199000       0.00000000
