10
Lattice="16.290000149 0.0 0.0 0.0 16.290000149 0.0 0.0 0.0 29.1751946751" Properties=species:S:1:pos:R:3:initial_magmoms:R:1 pbc="T T T"
Si       1.29336085       1.43674543       1.31297129       0.00000000
Si      -1.35435061       1.36741519      -1.33712835       0.00000000
Si      -1.30622995      -1.34914433       1.42290342       0.00000000
Si       1.42501663      -1.36100508      -1.29946317       0.00000000
Si       2.53638560       0.04606812       2.68181307       0.00000000
Si      -2.65175138      -2.69454521       0.03544786       0.00000000
Si       0.06235812      -2.70327665      -2.67583215       0.00000000
Si      -2.71103069       0.00047241      -2.67416917       0.00000000
Si       0.01964574       2.70542693      -2.69879303       0.00000000
Si       2.75983554       0.00402363      -2.66801320       0.00000000
