10
Lattice="16.290000149 0.0 0.0 0.0 16.290000149 0.0 0.0 0.0 29.1751946751" Properties=species:S:1:pos:R:3:initial_magmoms:R:1 pbc="T T T"
Si      -0.72650143       2.18956824       0.40830685       0.00000000
Si       1.88841827       0.54585999       1.30153461       0.00000000
Si      -1.62460171      -1.48556982       0.93521087       0.00000000
Si       0.76647709       0.35188518      -2.25226668       0.00000000
H        1.46308636      -2.16066001      -1.26497809       0.00000000
H        1.71297497       1.93326138       1.91214226       0.00000000
Si       1.21254616       3.21886819      -0.48748833       0.00000000
Si       2.56761353       1.69073586      -1.64279686       0.00000000
H       -0.41534613      -2.60597974      -2.50022666       0.00000000
Si      -0.40883013      -2.90121970       2.38628848       0.00000000
