10
Lattice="16.290000149 0.0 0.0 0.0 16.290000149 0.0 0.0 0.0 29.1751946751" Properties=species:S:1:pos:R:3:initial_magmoms:R:1 pbc="T T T"
Si      -1.36936999       1.36142862      -1.31329221       0.00000000
Si      -1.38629530      -1.36016614       1.30439378       0.00000000
Si       1.32261769      -1.35032698      -1.38660948       0.00000000
Si       1.35496963       1.37023662       1.33992917       0.00000000
Si      -0.00443088      -2.70690932       2.64018007       0.00000000
Si      -0.02309922       2.69291621      -2.65889012       0.00000000
Si       2.67279806       0.04535208      -2.69591344       0.00000000
Si      -2.70387938       0.00884547       2.69430005       0.00000000
Si       2.73816984       0.01049076       2.66124456       0.00000000
Si      -0.00366525       2.72748359       2.67965411       0.00000000
