10
Lattice="16.290000149 0.0 0.0 0.0 16.290000149 0.0 0.0 0.0 29.1751946751" Properties=species:S:1:pos:R:3:initial_magmoms:R:1 pbc="T T T"
Si      -1.34506531      -1.32434443      -1.40816995       0.00000000
Si      -1.38665368       1.35009892       1.35227027       0.00000000
Si       1.35417142       1.34892604      -1.39282379       0.00000000
Si       1.39190672      -1.35565381       1.35159924       0.00000000
Si      -2.68428251      -2.67335192      -0.03600219       0.00000000
Si       2.66305664      -2.71617833      -0.07147923       0.00000000
Si       0.02450016       2.70769124       2.67352731       0.00000000
Si      -2.71852409       2.66773187      -0.08813826       0.00000000
Si       2.75283084       0.04833243       2.67008464       0.00000000
Si      -2.73891917      -0.03284064       2.70626188       0.00000000
