10
Lattice="16.290000149 0.0 0.0 0.0 16.290000149 0.0 0.0 0.0 29.1751946751" Properties=species:S:1:pos:R:3:initial_magmoms:R:1 pbc="T T T"
Si      -1.22282515       1.21378616       1.59179862       0.00000000
Si      -1.93399769      -0.83942371      -1.08303866       0.00000000
Si       1.31144275      -1.52050861       1.30926312       0.00000000
Si       1.49584718       1.28988880      -1.36082152       0.00000000
H       -0.82821619      -2.52791480      -1.86429786       0.00000000
Si      -2.64569150       2.55506860       0.34549557       0.00000000
Si      -3.67732092       0.70348366      -0.61976866       0.00000000
Si       2.83594893       2.53674235       0.09804616       0.00000000
Si       2.66684570      -0.24118974      -2.70670243       0.00000000
Si       2.70249962      -0.22740840       2.73829333       0.00000000
