10
Lattice="16.290000149 0.0 0.0 0.0 16.290000149 0.0 0.0 0.0 29.1751946751" Properties=species:S:1:pos:R:3:initial_magmoms:R:1 pbc="T T T"
Si       1.36254448       1.35133696      -1.34979038       0.00000000
Si       1.37295379      -1.35381304       1.34427627       0.00000000
Si      -1.35156502       1.36006840       1.36148963       0.00000000
Si      -1.37002159      -1.36073629      -1.35200770       0.00000000
Si      -0.02674818       2.70076148      -2.68225070       0.00000000
Si      -0.00141723      -2.67628412       2.70798322       0.00000000
Si       2.66440871      -2.72016938      -0.06768645       0.00000000
Si       2.68270238      -0.01630629      -2.73359904       0.00000000
Si      -2.68722123       0.00744453       2.73144008       0.00000000
Si       2.72520299       2.69360854       0.02657860       0.00000000
