10
Lattice="16.290000149 0.0 0.0 0.0 16.290000149 0.0 0.0 0.0 29.1751946751" Properties=species:S:1:pos:R:3:initial_magmoms:R:1 pbc="T T T"
Si       1.43969392       1.32862870       1.21120821       0.00000000
Si      -1.24302475       1.39067731      -1.36884178       0.00000000
Si       1.51977556      -1.31595834      -1.19851700       0.00000000
Si      -1.15606873      -1.44493930       1.50190985       0.00000000
H        2.07879950       0.48483927       2.29194494       0.00000000
Si       2.50426172      -2.17855131       0.78498779       0.00000000
Si       0.76323538      -2.50011266       2.28333826       0.00000000
Si       0.01032786       2.55487475       2.49873872       0.00000000
Si      -2.41684958      -2.76240936       0.03562291       0.00000000
Si      -2.53638560      -0.04606812      -2.68181307       0.00000000
