10
Lattice="16.28999089631971 0.0 0.0 0.0 16.28999089631971 0.0 0.0 0.0 34.383488856416385" Properties=species:S:1:pos:R:3:initial_magmoms:R:1 pbc="T T T"
Si      -1.35604476      -1.35343184       1.35797665       0.00000000
Si       1.35749457      -1.35756136      -1.35732336       0.00000000
Si      -1.35759231       1.35749457      -1.35770158       0.00000000
Si       1.35964485       1.35931905       1.35660131       0.00000000
Si       2.71059084      -0.00089595       2.71485303       0.00000000
Si      -2.71295289      -0.00234576       2.71323701       0.00000000
Si       2.71446786      -2.71486019       0.00024068       0.00000000
Si      -2.71453302      -2.71489739      -0.00010315       0.00000000
Si       0.00188964      -2.71567599      -2.71409659       0.00000000
Si       2.71453302       2.71528236       0.00024068       0.00000000
