10
Lattice="16.28999089631971 0.0 0.0 0.0 16.28999089631971 0.0 0.0 0.0 34.383488856416385" Properties=species:S:1:pos:R:3:initial_magmoms:R:1 pbc="T T T"
Si      -2.25767997      -0.53772217       0.29972104       0.00000000
Si       1.39572720      -1.39094350      -1.34745530       0.00000000
Si       0.30309174       0.44995749       2.33061733       0.00000000
Si       0.41858784       2.76107518      -1.68596093       0.00000000
Si       2.45244321       1.36147096       2.15577719       0.00000000
Si      -1.30391676       3.29880808       0.15269716       0.00000000
Si      -3.07820727       1.68601663       0.79766300       0.00000000
Si       3.29699826      -1.55236111       0.14582046       0.00000000
Si       0.71439795      -1.66279102       3.32639810       0.00000000
Si      -2.61006525      -2.30217352       1.96388283       0.00000000
