10
Lattice="16.28999089631971 0.0 0.0 0.0 16.28999089631971 0.0 0.0 0.0 34.383488856416385" Properties=species:S:1:pos:R:3:initial_magmoms:R:1 pbc="T T T"
Si      -0.91072503      -2.08821577       0.24615153       0.00000000
Si      -0.61427961       1.08215122      -1.97605459       0.00000000
Si       2.23443414      -0.46686651       0.58283485       0.00000000
Si      -1.19511585       1.34958415       1.54364759       0.00000000
Si      -0.04030146      -2.55539668       2.37796342       0.00000000
Si       1.81802916      -1.19773854       2.77127637       0.00000000
Si      -0.19893348       3.39836116       1.08373379       0.00000000
Si       1.21927392       0.60006496      -3.38880417       0.00000000
Si      -0.61791228       3.41362489      -1.21463181       0.00000000
Si      -3.20548104      -1.80217966       0.46304270       0.00000000
