10
Lattice="16.28999089631971 0.0 0.0 0.0 16.28999089631971 0.0 0.0 0.0 34.383488856416385" Properties=species:S:1:pos:R:3:initial_magmoms:R:1 pbc="T T T"
Si       1.25071362      -1.42387632       1.46240968       0.00000000
Si       1.65032361       0.82766232      -1.57656090       0.00000000
Si      -1.41319008      -1.24286184      -1.53887658       0.00000000
Si      -1.45466442       1.31020470       1.45058519       0.00000000
Si       2.44131714      -1.44502074      -2.04039443       0.00000000
Si       2.76297948       2.50404993      -0.17257770       0.00000000
Si       0.33032862      -2.23495542      -3.02190605       0.00000000
Si       2.50649343      -2.82227508      -0.02063698       0.00000000
Si      -2.70918990      -2.66846490       0.00430825       0.00000000
Si       2.61433323      -0.06058251       2.83406753       0.00000000
