10
Lattice="16.28999089631971 0.0 0.0 0.0 16.28999089631971 0.0 0.0 0.0 34.383488856416385" Properties=species:S:1:pos:R:3:initial_magmoms:R:1 pbc="T T T"
Si      -1.46778669      -0.36291839       1.77384518       0.00000000
Si       1.54482794       1.73175732       0.30890144       0.00000000
Si       1.10783892      -2.07339839       0.25636344       0.00000000
Si      -1.78174386       0.22384578      -1.70181173       0.00000000
Si      -0.04745114       3.36634479       1.00200419       0.00000000
Si      -2.30022198      -2.54598758       1.16075285       0.00000000
Si      -0.66185523      -3.57792650      -0.15355675       0.00000000
Si       3.20272640      -1.95917291      -0.97370657       0.00000000
Si       2.55747950       2.53136826      -1.58755533       0.00000000
Si      -0.46026648      -0.53602408       3.93519250       0.00000000
