10
Lattice="16.28999089631971 0.0 0.0 0.0 16.28999089631971 0.0 0.0 0.0 34.383488856416385" Properties=species:S:1:pos:R:3:initial_magmoms:R:1 pbc="T T T"
Si       1.35488817       1.35596331      -1.35636063       0.00000000
Si       1.35094599      -1.36021500       1.35825172       0.00000000
Si      -1.35909099       1.35395964       1.36065856       0.00000000
Si      -1.35964485      -1.35931905      -1.35660131       0.00000000
Si       0.01790271       2.69114058       2.72087014       0.00000000
Si       2.70736542      -0.00118917       2.71392468       0.00000000
Si      -0.00179190       2.71241532      -2.71413098       0.00000000
Si       2.71298547      -0.00158013      -2.71419974       0.00000000
Si      -2.71568961      -2.71275089       0.00137534       0.00000000
Si       2.71366965      -2.71507548       0.00213178       0.00000000
