10
Lattice="16.28999089631971 0.0 0.0 0.0 16.28999089631971 0.0 0.0 0.0 34.383488856416385" Properties=species:S:1:pos:R:3:initial_magmoms:R:1 pbc="T T T"
Si       1.08478368      -1.68486655       1.22807576       0.00000000
Si       0.70710003       0.55705284      -2.17382853       0.00000000
Si       0.33177843       2.27436093       0.73615091       0.00000000
Si      -2.00212964      -0.71156349      -1.25486051       0.00000000
Si      -1.85566625       1.60524918       0.49154663       0.00000000
Si      -1.47244430       0.94016106      -2.86589978       0.00000000
Si       1.95211215      -1.37181348      -2.51786991       0.00000000
Si      -0.25756282      -1.67189157       3.15038893       0.00000000
Si       3.15081180      -0.64783701       1.89281212       0.00000000
Si       0.90409500       2.22070167       2.98995548       0.00000000
