10
Lattice="16.28999089631971 0.0 0.0 0.0 16.28999089631971 0.0 0.0 0.0 34.383488856416385" Properties=species:S:1:pos:R:3:initial_magmoms:R:1 pbc="T T T"
Si      -0.40594680       0.78154533      -2.16162239       0.00000000
Si      -1.77591951      -1.09576314       1.06877696       0.00000000
Si       1.23432588      -1.89027531      -0.64200886       0.00000000
Si       1.42915428       1.55461986       1.10855868       0.00000000
Si      -1.98853659       2.81261511       0.66202006       0.00000000
Si      -2.08498968       2.41004034      -1.71663102       0.00000000
Si       3.45175326       1.24093962      -0.11184955       0.00000000
Si       2.88121230      -2.17733769       1.02339073       0.00000000
Si       0.21133017       3.59372061       1.19114787       0.00000000
Si      -1.35694071      -1.11102687       3.36714256       0.00000000
