10
Lattice="16.28999089631971 0.0 0.0 0.0 16.28999089631971 0.0 0.0 0.0 34.383488856416385" Properties=species:S:1:pos:R:3:initial_magmoms:R:1 pbc="T T T"
Si      -2.17954433       0.38310822      -0.69207125       0.00000000
Si       1.17944487       1.93139127      -0.51468673       0.00000000
Si       1.24501212      -1.92886632      -0.34404138       0.00000000
Si      -0.70710003      -0.55705284       2.17382853       0.00000000
Si      -2.70922967      -1.26861633       0.91896802       0.00000000
Si      -0.37532160       1.71730809       2.90997944       0.00000000
Si       3.28934196       1.08419724       0.18842162       0.00000000
Si       1.61029908      -1.70033391      -2.63773082       0.00000000
Si       0.33435225       3.30087528       1.26627584       0.00000000
Si      -2.10604939       0.53142867      -3.01832187       0.00000000
