10
Lattice="16.28999089631971 0.0 0.0 0.0 16.28999089631971 0.0 0.0 0.0 34.383488856416385" Properties=species:S:1:pos:R:3:initial_magmoms:R:1 pbc="T T T"
Si      -1.35630540      -1.35736425       1.35673884       0.00000000
Si      -1.35778779       1.35782037      -1.35759843       0.00000000
Si       1.35865116       1.35769005       1.35766720       0.00000000
Si       1.35803214      -1.35830907      -1.35801103       0.00000000
Si      -0.00107514       2.71318095      -2.71409659       0.00000000
Si       2.71365336       0.00083079      -2.71557508       0.00000000
Si       2.71471221      -2.71476108      -0.00024068       0.00000000
Si      -2.71453302       2.71494027       0.00034384       0.00000000
Si      -2.71599912      -0.00047241      -2.71364961       0.00000000
Si      -2.71513575      -2.71469592      -0.00068767       0.00000000
