10
Lattice="16.28999089631971 0.0 0.0 0.0 16.28999089631971 0.0 0.0 0.0 34.383488856416385" Properties=species:S:1:pos:R:3:initial_magmoms:R:1 pbc="T T T"
Si      -1.19909061       1.40025582       1.49427288       0.00000000
Si       1.97967483       1.29223683      -0.30515363       0.00000000
Si       0.20572641      -2.03929623       1.24557696       0.00000000
Si      -1.02345183       0.03215646      -2.19738123       0.00000000
Si       2.24147142       0.72606159      -2.58282036       0.00000000
Si       0.21984984       1.79874180      -3.22672031       0.00000000
Si      -1.59093027      -3.37080825       0.46919735       0.00000000
Si      -1.18941435       0.20927763       3.58300223       0.00000000
Si       1.38531789       3.56208543      -0.26066137       0.00000000
Si      -0.02888217       3.56480586       1.71945047       0.00000000
