10
Lattice="16.28999089631971 0.0 0.0 0.0 16.28999089631971 0.0 0.0 0.0 34.383488856416385" Properties=species:S:1:pos:R:3:initial_magmoms:R:1 pbc="T T T"
Si      -1.35769005      -1.35685926      -1.35667008       0.00000000
Si       1.35710361      -1.35583299       1.35893939       0.00000000
Si       1.35708732       1.35836375      -1.35663569       0.00000000
Si      -1.35845568       1.35647756       1.36289349       0.00000000
Si      -2.71521720      -2.71166598      -0.00161602       0.00000000
Si      -0.00048870      -2.71397916      -2.71413098       0.00000000
Si       2.71621089      -2.71195920       0.00140972       0.00000000
Si       2.71458189       0.00153126      -2.71406221       0.00000000
Si      -2.71490769       0.00102627      -2.71392468       0.00000000
Si       0.00011403       2.71566259      -2.71419974       0.00000000
