10
Lattice="16.28999089631971 0.0 0.0 0.0 16.28999089631971 0.0 0.0 0.0 34.383488856416385" Properties=species:S:1:pos:R:3:initial_magmoms:R:1 pbc="T T T"
Si      -0.86915295      -2.16586953      -0.46393667       0.00000000
Si       2.21739480       0.22432959       1.00671473       0.00000000
Si      -1.76482602       0.13962159       1.75029248       0.00000000
Si       0.56361771      -1.22795649       2.17018388       0.00000000
Si      -0.08469171       0.93058254      -2.46976738       0.00000000
Si       0.69683733       2.74048299      -1.12413441       0.00000000
Si      -2.22526287       2.48490918       1.52418653       0.00000000
Si       1.10418507      -3.44950524      -1.11247840       0.00000000
Si       2.55375072      -2.02525425      -2.35227894       0.00000000
Si      -2.69967654      -1.97926758      -2.24586198       0.00000000
