10
Lattice="16.28999089631971 0.0 0.0 0.0 16.28999089631971 0.0 0.0 0.0 34.383488856416385" Properties=species:S:1:pos:R:3:initial_magmoms:R:1 pbc="T T T"
Si      -0.74145727      -1.88514396      -1.17777269       0.00000000
Si      -1.55108004       0.09024660       1.78089380       0.00000000
Si       2.08608111      -0.59365647       1.08435269       0.00000000
Si       0.42020055       2.00744928      -1.33820613       0.00000000
Si       3.08226348       1.45512054       0.62443889       0.00000000
Si       2.66328468       1.47038427      -1.67392671       0.00000000
Si       0.60088923      -1.89811894      -3.10008585       0.00000000
Si       2.66691735      -0.86108940      -2.43534949       0.00000000
Si       0.07571592      -3.74542028       0.00374780       0.00000000
Si       3.28119696      -1.94324062      -0.45929490       0.00000000
