10
Lattice="16.28999089631971 0.0 0.0 0.0 16.28999089631971 0.0 0.0 0.0 34.383488856416385" Properties=species:S:1:pos:R:3:initial_magmoms:R:1 pbc="T T T"
Si       2.25767997       0.53772217      -0.29972104       0.00000000
Si      -1.28669823      -0.87001632      -1.85835984       0.00000000
Si      -0.82052730       2.22373880       0.49794196       0.00000000
Si      -0.35238528      -1.76445135       1.66416179       0.00000000
Si       2.56077171       0.98767966       2.03089629       0.00000000
Si      -2.69154783      -1.54880433       1.62441446       0.00000000
Si      -3.38158571      -0.98424180      -0.62828984       0.00000000
Si      -1.18581426       1.99520639       2.79163140       0.00000000
Si      -0.82626138      -3.21530391      -1.63225390       0.00000000
Si       0.95376321       3.83653025      -0.14702388       0.00000000
