10
Lattice="16.28999089631971 0.0 0.0 0.0 16.28999089631971 0.0 0.0 0.0 34.383488856416385" Properties=species:S:1:pos:R:3:initial_magmoms:R:1 pbc="T T T"
Si      -0.19372068       2.26815444      -0.61890315       0.00000000
Si       1.78360839      -0.39074823      -1.53388268       0.00000000
Si      -1.95297552      -0.92826936      -1.03927591       0.00000000
Si      -0.66505554      -1.67413959       2.66083654       0.00000000
Si      -0.97467957      -3.04438923      -0.89850983       0.00000000
Si       1.23473313      -2.75006151      -1.78079065       0.00000000
Si       2.68574859       0.46086039       2.52883825       0.00000000
Si      -2.61371421      -0.32039172       2.68624595       0.00000000
Si      -1.76386491       3.22882461       0.81306682       0.00000000
Si       3.85669008       0.33875055      -0.52311069       0.00000000
