10
Lattice="16.28999089631971 0.0 0.0 0.0 16.28999089631971 0.0 0.0 0.0 34.383488856416385" Properties=species:S:1:pos:R:3:initial_magmoms:R:1 pbc="T T T"
Si       1.34192133       1.34350146       1.37912595       0.00000000
Si       1.42568451      -1.23773375      -1.44067930       0.00000000
Si      -1.36524861      -1.37465283       1.37695979       0.00000000
Si      -1.46756610       1.28611179      -1.47716021       0.00000000
Si      -0.51816861      -2.09986571      -2.52159502       0.00000000
Si      -2.47133961      -0.60957180      -2.52650189       0.00000000
Si      -2.72334591       2.68451055       0.00588646       0.00000000
Si       2.72002275       2.69860140       0.01203423       0.00000000
Si       2.70221778      -2.73343661       0.00060515       0.00000000
Si      -0.00558747       2.69656515       2.74115985       0.00000000
