10
Lattice="16.28999089631971 0.0 0.0 0.0 16.28999089631971 0.0 0.0 0.0 34.383488856416385" Properties=species:S:1:pos:R:3:initial_magmoms:R:1 pbc="T T T"
Si      -1.52723637       1.15917034      -1.43437681       0.00000000
Si       1.16998038      -1.57257048      -1.44032515       0.00000000
Si      -1.91837556      -0.88834161       1.30743289       0.00000000
Si       1.91640447       0.88724625       1.50630711       0.00000000
Si       2.57961924       2.58565468      -0.03689350       0.00000000
Si      -0.18329508       2.50088153      -2.82030725       0.00000000
Si      -2.88155439       2.45590483       0.10768915       0.00000000
Si       3.55703553      -0.83823357       1.00558008       0.00000000
Si       2.53900827      -0.21648573      -2.81618123       0.00000000
Si      -2.69990460      -2.69824206      -0.03820008       0.00000000
