10
Lattice="16.28999089631971 0.0 0.0 0.0 16.28999089631971 0.0 0.0 0.0 34.383488856416385" Properties=species:S:1:pos:R:3:initial_magmoms:R:1 pbc="T T T"
Si       1.55108004      -0.09024660      -1.78089380       0.00000000
Si      -2.02222009       1.10244204      -0.53528245       0.00000000
Si       0.98146598       1.23204528       1.84316233       0.00000000
Si      -0.48915107      -2.29016223       0.66930937       0.00000000
Si       0.80962277      -1.97539056      -2.95866649       0.00000000
Si      -1.17504235       3.02120856      -1.75888836       0.00000000
Si      -2.98205947      -0.35938998      -2.14594351       0.00000000
Si       3.63716115      -0.68390307      -0.69654111       0.00000000
Si      -1.55433871      -2.10897670      -2.80345933       0.00000000
Si       2.14812483      -0.45304119       3.18728243       0.00000000
