10
Lattice="16.28999089631971 0.0 0.0 0.0 16.28999089631971 0.0 0.0 0.0 34.383488856416385" Properties=species:S:1:pos:R:3:initial_magmoms:R:1 pbc="T T T"
Si       2.28889161      -0.23167312      -0.16225577       0.00000000
Si       0.14030577       1.96069046       1.26534748       0.00000000
Si      -1.32403491      -1.65616913       1.04577440       0.00000000
Si      -1.11778722       0.99482378      -1.83975837       0.00000000
Si       2.43429615       0.77087701      -2.25679594       0.00000000
Si      -0.41787108       1.07433527       3.29583117       0.00000000
Si       0.44142642       0.26321871      -3.46809254       0.00000000
Si      -2.85583248      -2.02943819      -0.66913745       0.00000000
Si      -2.27353014      -0.31159675       2.74858325       0.00000000
Si      -3.26713869       0.08331032      -1.66491823       0.00000000
