10
Lattice="16.28999089631971 0.0 0.0 0.0 16.28999089631971 0.0 0.0 0.0 34.383488856416385" Properties=species:S:1:pos:R:3:initial_magmoms:R:1 pbc="T T T"
Si      -0.55817685      -0.88635519       2.03048369       0.00000000
Si      -1.53025002       1.62232110      -0.56457720       0.00000000
Si       1.97514621       1.16295939       0.38763967       0.00000000
Si      -0.14030577      -1.96069046      -1.26534748       0.00000000
Si       3.18536289      -0.75885336       0.12281789       0.00000000
Si       2.14858584      -2.19236359      -1.42760326       0.00000000
Si      -1.30183164       1.10402217       2.95718800       0.00000000
Si      -1.25809299      -0.96586668      -3.10510585       0.00000000
Si      -2.94871806       1.39108455       1.29178840       0.00000000
Si      -1.73881089       1.33182153      -2.87091977       0.00000000
