10
Lattice="16.28999089631971 0.0 0.0 0.0 16.28999089631971 0.0 0.0 0.0 34.383488856416385" Properties=species:S:1:pos:R:3:initial_magmoms:R:1 pbc="T T T"
Si       0.10195911      -1.28599354       1.95858777       0.00000000
Si       0.94949523      -1.34457238      -1.70280885       0.00000000
Si       1.85565906       1.38593202       0.54724791       0.00000000
Si      -1.70794134       1.64432400      -0.65483391       0.00000000
Si      -0.69278112       0.57739253       3.31680511       0.00000000
Si       2.27353014       0.31159675      -2.74858325       0.00000000
Si       2.41383591       2.27228721      -1.48323577       0.00000000
Si       2.44361403      -1.95420934       1.95167669       0.00000000
Si      -0.53488215       3.66337176      -0.19144737       0.00000000
Si       1.11200427       3.37630938       1.47395222       0.00000000
