10
Lattice="16.28999089631971 0.0 0.0 0.0 16.28999089631971 0.0 0.0 0.0 34.383488856416385" Properties=species:S:1:pos:R:3:initial_magmoms:R:1 pbc="T T T"
Si       1.66288320       1.46996073      -0.77641400       0.00000000
Si      -1.68578694       1.09965645       1.22951987       0.00000000
Si       0.32610951      -1.85622011       1.42952873       0.00000000
Si      -0.36341361      -1.14156247      -2.04929146       0.00000000
Si       2.64741822      -1.70496760       0.42659618       0.00000000
Si      -1.64792898      -1.06221877       2.62153619       0.00000000
Si       3.09060396      -0.27962599      -1.43392982       0.00000000
Si      -2.02989690       0.13753647      -3.05738154       0.00000000
Si       1.76777451      -1.15101556      -3.10314599       0.00000000
Si       0.76830156       2.87054235      -2.46392219       0.00000000
