10
Lattice="16.28999089631971 0.0 0.0 0.0 16.28999089631971 0.0 0.0 0.0 34.383488856416385" Properties=species:S:1:pos:R:3:initial_magmoms:R:1 pbc="T T T"
Si      -0.61289579      -0.09058869       2.22698543       0.00000000
Si       1.60716146      -1.72360322      -0.11597557       0.00000000
Si       0.48915107       2.29016223      -0.66930937       0.00000000
Si      -1.50837338      -1.24415608      -1.61224269       0.00000000
Si      -0.45825482      -2.39160725       2.22220613       0.00000000
Si       2.11594703      -1.54550465      -2.44645537       0.00000000
Si      -1.06518764       0.18118552      -3.47276870       0.00000000
Si       0.06771704      -3.67170803       0.20667927       0.00000000
Si      -2.52495083       1.38992796       2.51119951       0.00000000
Si       1.29877384       0.31477167      -3.62797585       0.00000000
