10
Lattice="16.28999089631971 0.0 0.0 0.0 16.28999089631971 0.0 0.0 0.0 34.383488856416385" Properties=species:S:1:pos:R:3:initial_magmoms:R:1 pbc="T T T"
Si       1.28656791      -1.31435865      -1.45411294       0.00000000
Si       1.20661659       1.46041479       1.39552344       0.00000000
Si      -1.46849463      -1.13992533       1.51865078       0.00000000
Si      -1.40289480       1.37797110      -1.44716747       0.00000000
Si      -2.45294820       0.70449363       2.58295789       0.00000000
Si      -0.63265473       2.31169761       2.78843374       0.00000000
Si       2.69306280      -2.58861132      -0.02637215       0.00000000
Si       2.65347810       0.22973787       2.74177532       0.00000000
Si       2.65013865       0.04134402      -2.80706960       0.00000000
Si      -0.06985152      -2.67338448      -2.80978590       0.00000000
