10
Lattice="16.28999089631971 0.0 0.0 0.0 16.28999089631971 0.0 0.0 0.0 34.383488856416385" Properties=species:S:1:pos:R:3:initial_magmoms:R:1 pbc="T T T"
Si       1.29832929      -1.93285737      -0.12536227       0.00000000
Si       0.76629789       1.59547518       1.54925211       0.00000000
Si      -2.09018619      -0.65244708       0.91721446       0.00000000
Si      -0.16107552       1.33393923      -1.96161352       0.00000000
Si      -1.27799937       2.20421619       2.56016163       0.00000000
Si      -0.55923570      -0.30208176      -3.59204509       0.00000000
Si      -1.80939546       2.94259302      -1.30860193       0.00000000
Si       2.04154425       3.08343636       0.16641618       0.00000000
Si      -2.01357432       0.07025877       3.16912794       0.00000000
Si       0.69286257      -3.28908132       1.73481990       0.00000000
