10
Lattice="16.28999089631971 0.0 0.0 0.0 16.28999089631971 0.0 0.0 0.0 34.383488856416385" Properties=species:S:1:pos:R:3:initial_magmoms:R:1 pbc="T T T"
Si       1.35697329       1.35728280      -1.35742652       0.00000000
Si      -1.35783666      -1.35770634      -1.35715145       0.00000000
Si       1.35904212      -1.35860229       1.35811419       0.00000000
Si      -1.36000323       1.35697329       1.35948953       0.00000000
Si      -2.71505430      -2.71288773       0.00003438       0.00000000
Si       2.71516833      -2.71331127      -0.00089397       0.00000000
Si      -0.00166158       2.71482624      -2.71437166       0.00000000
Si       2.71467963      -0.00008145      -2.71461235       0.00000000
Si      -0.00104256      -2.71476108      -2.71468111       0.00000000
Si      -2.71505430       0.00050499      -2.71464673       0.00000000
