10
Lattice="16.28999089631971 0.0 0.0 0.0 16.28999089631971 0.0 0.0 0.0 34.383488856416385" Properties=species:S:1:pos:R:3:initial_magmoms:R:1 pbc="T T T"
Si      -1.29781047       1.30588785       1.41277709       0.00000000
Si      -1.49638215      -1.11324231      -1.46801905       0.00000000
Si       1.39141849       1.24905204      -1.47245452       0.00000000
Si       1.42548088      -1.41265251       1.36970487       0.00000000
Si       0.25556404      -2.00407725      -2.95287084       0.00000000
Si      -2.60758821      -2.72396493      -0.05651617       0.00000000
Si      -3.00475470       2.28578022       0.17839883       0.00000000
Si      -2.63914194      -0.06805962       2.75539119       0.00000000
Si       0.06893602       2.65919589       2.74985544       0.00000000
Si       2.21346076      -0.35665326      -3.13142440       0.00000000
