10
Lattice="16.28999089631971 0.0 0.0 0.0 16.28999089631971 0.0 0.0 0.0 34.383488856416385" Properties=species:S:1:pos:R:3:initial_magmoms:R:1 pbc="T T T"
Si      -1.39600413       1.30616478      -1.38386743       0.00000000
Si       1.32906852      -1.41698565      -1.37475580       0.00000000
Si      -1.48253661      -1.35340578       1.44933363       0.00000000
Si       1.34789976       1.68057414       1.70892912       0.00000000
Si      -2.63717181       2.64782547       0.14361991       0.00000000
Si       2.73134430      -2.61793332       0.18794026       0.00000000
Si      -0.03567510      -2.58408270       2.79558551       0.00000000
Si       0.55254051      -0.32904171       3.76214030       0.00000000
Si      -0.04153950       2.65828365      -2.75377516       0.00000000
Si       2.67750585      -0.05729193      -2.75515050       0.00000000
