10
Lattice="16.28999089631971 0.0 0.0 0.0 16.28999089631971 0.0 0.0 0.0 34.383488856416385" Properties=species:S:1:pos:R:3:initial_magmoms:R:1 pbc="T T T"
Si      -0.96684408       2.01148920       0.64909187       0.00000000
Si      -1.08535383      -1.97719875      -0.70207685       0.00000000
Si       1.05896403       0.46719720      -2.06345747       0.00000000
Si       1.59036012      -0.27117963       1.80530609       0.00000000
Si       0.77817330      -3.12784290       0.16235893       0.00000000
Si       0.85478517      -2.40513705       2.41427240       0.00000000
Si       1.71600489       2.73282669      -1.56775043       0.00000000
Si      -2.90800935       2.09549673      -0.74123967       0.00000000
Si       0.97751403       3.48961122       0.58448525       0.00000000
Si      -1.13117760       1.81527615       2.98362891       0.00000000
