10
Lattice="16.28999089631971 0.0 0.0 0.0 16.28999089631971 0.0 0.0 0.0 34.383488856416385" Properties=species:S:1:pos:R:3:initial_magmoms:R:1 pbc="T T T"
Si      -1.35546646      -1.35627402       1.35715145       0.00000000
Si       1.35700587      -1.35730029      -1.35694515       0.00000000
Si      -1.35804680       1.35728390      -1.35763282       0.00000000
Si       1.35848826       1.36146554       1.35807980       0.00000000
Si       0.00158013       2.71255163       2.71334016       0.00000000
Si      -0.00255753       2.71426208      -2.71474988       0.00000000
Si       2.71422351      -2.71518582       0.00030945       0.00000000
Si       2.71453302       2.71489739       0.00010315       0.00000000
Si       2.71642266      -0.00077860      -2.71399344       0.00000000
Si      -2.71552586      -2.71508808       0.00041260       0.00000000
