10
Lattice="16.28999089631971 0.0 0.0 0.0 16.28999089631971 0.0 0.0 0.0 34.383488856416385" Properties=species:S:1:pos:R:3:initial_magmoms:R:1 pbc="T T T"
Si       2.23269111      -0.59207634      -0.53091575       0.00000000
Si      -0.73849086       0.75678453       2.15223569       0.00000000
Si      -0.65704086      -2.26562949      -0.49570704       0.00000000
Si      -1.51975926       1.41846804      -1.22518754       0.00000000
Si      -2.68284897      -0.72133749       2.21684230       0.00000000
Si      -1.71600489      -2.73282669       1.56775043       0.00000000
Si      -2.60760546      -0.18710694      -2.55720465       0.00000000
Si       2.29021110      -2.18310435      -2.30510476       0.00000000
Si      -1.59426972       3.01286808       1.94050205       0.00000000
Si       3.19389885      -2.12478615       0.97931108       0.00000000
