10
Lattice="16.28999089631971 0.0 0.0 0.0 16.28999089631971 0.0 0.0 0.0 34.383488856416385" Properties=species:S:1:pos:R:3:initial_magmoms:R:1 pbc="T T T"
Si       1.22429124      -1.66166145      -1.20895853       0.00000000
Si       1.25384130       1.45635858       1.50852626       0.00000000
Si      -1.56074490      -1.26048762       1.43562634       0.00000000
Si       0.62372781       1.82439855      -1.84106494       0.00000000
Si       1.17094149      -0.12210984      -3.05194894       0.00000000
Si      -2.68574859      -0.46086039      -2.52883825       0.00000000
Si      -0.09454716      -2.65295682       2.85266355       0.00000000
Si       2.63467944       0.06457356       2.87804889       0.00000000
Si      -3.35080413      -2.13499998       0.13199829       0.00000000
Si      -0.10570581       2.77148141       2.91141808       0.00000000
