10
Lattice="16.28999089631971 0.0 0.0 0.0 16.28999089631971 0.0 0.0 0.0 34.383488856416385" Properties=species:S:1:pos:R:3:initial_magmoms:R:1 pbc="T T T"
Si      -1.35701666      -1.35529542      -1.35416008       0.00000000
Si       1.35732841      -1.35632169       1.35649816       0.00000000
Si       1.35646504       1.35790182      -1.35646378       0.00000000
Si      -1.35775520       1.35840681       1.35691076       0.00000000
Si      -2.70560025      -0.00876402      -2.70752934       0.00000000
Si      -2.71411992       0.00263898       2.71337454       0.00000000
Si      -2.71398960      -2.71353933      -0.00027507       0.00000000
Si       0.00112564      -2.71401174       2.71437166       0.00000000
Si       2.71505104      -2.71417464      -0.00099712       0.00000000
Si       2.71615876       0.00100998       2.71392468       0.00000000
