10
Lattice="16.28999089631971 0.0 0.0 0.0 16.28999089631971 0.0 0.0 0.0 34.383488856416385" Properties=species:S:1:pos:R:3:initial_magmoms:R:1 pbc="T T T"
Si      -1.35953082      -1.32801456       1.35577611       0.00000000
Si      -1.35294966       1.35917244      -1.35677323       0.00000000
Si       1.35971001      -1.35500220      -1.35653254       0.00000000
Si       1.35426915       1.38455226       1.38885304       0.00000000
Si       0.16358418      -2.54372748       2.59622993       0.00000000
Si      -2.71267596       0.00166158      -2.71368399       0.00000000
Si      -2.70969489      -2.71689484       0.00508876       0.00000000
Si       0.00187335      -2.71343221      -2.71364961       0.00000000
Si      -2.71200807       2.71520091       0.00367904       0.00000000
Si       2.71278999       2.71749780       0.00288821       0.00000000
