10
Lattice="16.28999089631971 0.0 0.0 0.0 16.28999089631971 0.0 0.0 0.0 34.383488856416385" Properties=species:S:1:pos:R:3:initial_magmoms:R:1 pbc="T T T"
Si       1.35852084       1.33294554      -1.38596483       0.00000000
Si       1.59085764      -1.17452529       1.32201150       0.00000000
Si      -1.35426915      -1.38455226      -1.38885304       0.00000000
Si      -1.29591837       1.48519188       1.55602566       0.00000000
Si      -2.69819415       2.68613955      -0.00667040       0.00000000
Si       2.72633905       2.69316054      -0.00106589       0.00000000
Si      -2.71379997      -2.71256682      -0.03307693       0.00000000
Si       0.00636939       2.69112429      -2.74607326       0.00000000
Si      -2.70721881      -0.02537982      -2.74562627       0.00000000
Si       2.72161495      -0.02552643      -2.74507613       0.00000000
