10
Lattice="16.28999089631971 0.0 0.0 0.0 16.28999089631971 0.0 0.0 0.0 34.383488856416385" Properties=species:S:1:pos:R:3:initial_magmoms:R:1 pbc="T T T"
Si       1.21021668      -1.92181275      -0.26482178       0.00000000
Si      -1.97514621      -1.16295939      -0.38763967       0.00000000
Si       0.26487540       0.68369130       2.23630336       0.00000000
Si       0.60546672       1.35622395      -1.86018217       0.00000000
Si       3.35303586       0.94424985       0.45224628       0.00000000
Si       2.18031876       1.97503218       2.15639609       0.00000000
Si      -2.53332306      -2.04931458       1.64284402       0.00000000
Si      -3.50539623       0.45936171      -0.95221687       0.00000000
Si       3.20657247      -1.37256282      -1.29416086       0.00000000
Si      -1.72439424       1.72439424       2.83639873       0.00000000
