10
Lattice="16.28999089631971 0.0 0.0 0.0 16.28999089631971 0.0 0.0 0.0 34.383488856416385" Properties=species:S:1:pos:R:3:initial_magmoms:R:1 pbc="T T T"
Si      -1.35215145       1.35817875      -1.36010843       0.00000000
Si      -1.35852084      -1.33294554       1.38596483       0.00000000
Si       1.36309411      -1.35847197      -1.35911131       0.00000000
Si       1.36781821       1.36021500       1.38489894       0.00000000
Si       0.23233680      -2.50747083       2.70797633       0.00000000
Si      -2.70827766       2.71288773      -0.00110027       0.00000000
Si      -2.71060713      -0.00057015      -2.71664097       0.00000000
Si      -2.71278999      -2.71749780      -0.00288821       0.00000000
Si       0.00421328       2.71394658      -2.71657221       0.00000000
Si       2.71599002       2.71518462       0.00103151       0.00000000
