10
Lattice="16.28999089631971 0.0 0.0 0.0 16.28999089631971 0.0 0.0 0.0 34.383488856416385" Properties=species:S:1:pos:R:3:initial_magmoms:R:1 pbc="T T T"
Si       1.35612621      -1.35470898      -1.35900816       0.00000000
Si       1.36674729       1.34170956       1.36254966       0.00000000
Si      -1.35904212       1.35860229      -1.35811419       0.00000000
Si      -1.34843733      -1.35969372       1.38039470       0.00000000
Si       2.70827766      -2.71288773       0.00110027       0.00000000
Si       2.71091461       2.71440270       0.00357588       0.00000000
Si       2.71249094       0.00105885      -2.71547193       0.00000000
Si      -0.00232947      -2.71345788      -2.71554070       0.00000000
Si      -0.00206883       2.71588509      -2.71554070       0.00000000
Si      -2.71652040      -2.71518462       0.00189109       0.00000000
