10
Lattice="16.28999089631971 0.0 0.0 0.0 16.28999089631971 0.0 0.0 0.0 34.383488856416385" Properties=species:S:1:pos:R:3:initial_magmoms:R:1 pbc="T T T"
Si       0.47623815      -1.89763839       1.32238972       0.00000000
Si       1.64759571       1.65151278       0.45173053       0.00000000
Si      -1.85963382       0.34011891       1.51043313       0.00000000
Si      -1.22158710      -1.42789995      -1.80104254       0.00000000
Si      -2.70492192       0.80526357      -0.65889117       0.00000000
Si      -1.27138563      -3.24309465       0.36903819       0.00000000
Si       0.76409874      -0.65498832       3.41390413       0.00000000
Si       2.21525008       1.08629865       2.67964432       0.00000000
Si       0.89072091       3.79912122      -0.02375900       0.00000000
Si       3.30358661       1.73095911      -1.22859151       0.00000000
