10
Lattice="16.28999089631971 0.0 0.0 0.0 16.28999089631971 0.0 0.0 0.0 34.383488856416385" Properties=species:S:1:pos:R:3:initial_magmoms:R:1 pbc="T T T"
Si       0.84528810      -0.46514466       2.16932429       0.00000000
Si      -0.06568128      -0.86480352      -2.49617392       0.00000000
Si      -2.72196126      -0.22916772       0.95613659       0.00000000
Si       2.70492192      -0.80526357       0.65889117       0.00000000
Si       1.48333482      -2.23316352      -1.14215137       0.00000000
Si      -0.86104053      -2.87441937      -0.44296273       0.00000000
Si      -2.52965781       1.06709274      -2.41172802       0.00000000
Si       0.04963563       3.80689155       0.54466915       0.00000000
Si      -0.45364392      -2.15632359       3.32571043       0.00000000
Si       0.78776811       1.12588335       3.94351331       0.00000000
