10
Lattice="16.28999089631971 0.0 0.0 0.0 16.28999089631971 0.0 0.0 0.0 34.383488856416385" Properties=species:S:1:pos:R:3:initial_magmoms:R:1 pbc="T T T"
Si       1.54390104       1.72998171      -0.00601711       0.00000000
Si       0.96120774      -1.53270981       1.51022683       0.00000000
Si      -2.23269111       0.59207634       0.53091575       0.00000000
Si       0.05751999      -1.59102801      -1.77418902       0.00000000
Si      -2.88973197      -1.67355315       0.03520871       0.00000000
Si      -1.24141203      -3.28220694      -0.61780287       0.00000000
Si       1.16950797       2.89991322      -1.99407155       0.00000000
Si       2.68125255      -2.58613524       0.12928199       0.00000000
Si       2.17758204      -0.53098884       3.25745917       0.00000000
Si       1.36958175       3.35569113       1.63734265       0.00000000
