10
Lattice="16.28999089631971 0.0 0.0 0.0 16.28999089631971 0.0 0.0 0.0 34.383488856416385" Properties=species:S:1:pos:R:3:initial_magmoms:R:1 pbc="T T T"
Si      -0.15464097       2.30101856       0.00477931       0.00000000
Si      -1.09499751      -0.50285601       1.97098100       0.00000000
Si       0.52597186      -1.28010078      -2.01552686       0.00000000
Si      -2.61070056      -1.41776757       0.44110603       0.00000000
Si       2.06541629       0.66800403      -2.33818170       0.00000000
Si       0.45825482       2.39160725      -2.22220613       0.00000000
Si      -1.90852011      -2.36556864      -1.62063227       0.00000000
Si       1.77037995       2.60588916       1.60574219       0.00000000
Si       0.39584700      -1.67141916       3.29901649       0.00000000
Si       1.49110582      -3.28846230       1.89489030       0.00000000
