10
Lattice="16.28999089631971 0.0 0.0 0.0 16.28999089631971 0.0 0.0 0.0 34.383488856416385" Properties=species:S:1:pos:R:3:initial_magmoms:R:1 pbc="T T T"
Si       1.59585637      -1.08292662       1.39014242       0.00000000
Si       1.82828209       0.79280172      -1.34348198       0.00000000
Si      -1.09525882       1.61704314       1.40412620       0.00000000
Si      -1.29292168      -1.68886575      -1.24630521       0.00000000
Si       0.67289755       0.21944259      -3.50328204       0.00000000
Si       0.25113804      -2.42444070       2.75948282       0.00000000
Si      -2.46290206       0.28787688       2.75814187       0.00000000
Si       2.61766291       2.66734089       0.11099340       0.00000000
Si      -2.58610333       2.78560629       0.07609070       0.00000000
Si       2.95563154      -2.40614703      -0.07701218       0.00000000
