10
Lattice="16.28999089631971 0.0 0.0 0.0 16.28999089631971 0.0 0.0 0.0 34.383488856416385" Properties=species:S:1:pos:R:3:initial_magmoms:R:1 pbc="T T T"
Si      -1.34416732      -1.37269314       1.35897377       0.00000000
Si       1.35994729      -1.35487188      -1.36162130       0.00000000
Si      -1.35540742       1.36106208      -1.36244651       0.00000000
Si       1.39694351       1.35498591       1.36327171       0.00000000
Si      -2.60895550       0.06506226       2.72372398       0.00000000
Si       0.11434026      -2.58072696       2.82364245       0.00000000
Si      -2.71091461      -2.71440270      -0.00357588       0.00000000
Si       2.71335307      -2.71210581      -0.00144411       0.00000000
Si      -2.71591564       2.71568961      -0.00584520       0.00000000
Si      -2.71298344       0.00148239      -2.71911659       0.00000000
