10
Lattice="16.28999089631971 0.0 0.0 0.0 16.28999089631971 0.0 0.0 0.0 34.383488856416385" Properties=species:S:1:pos:R:3:initial_magmoms:R:1 pbc="T T T"
Si       1.27768497      -1.36865322      -1.37912251       0.00000000
Si      -0.90161633      -1.73025864       1.29656771       0.00000000
Si       0.56421067       1.93372074       1.22965740       0.00000000
Si      -1.46691191       1.32491457      -1.38654935       0.00000000
Si      -1.02439406       0.48294963       2.59361678       0.00000000
Si       2.56786763       2.73660208       0.09984971       0.00000000
Si       2.59893266      -0.00946449      -2.74462915       0.00000000
Si      -2.72821403      -2.65857687      -0.01867024       0.00000000
Si      -0.11759492       2.70741922      -2.74311627       0.00000000
Si      -0.11925854      -2.72363913      -2.74239422       0.00000000
