10
Lattice="16.28999089631971 0.0 0.0 0.0 16.28999089631971 0.0 0.0 0.0 34.383488856416385" Properties=species:S:1:pos:R:3:initial_magmoms:R:1 pbc="T T T"
Si      -0.46043685       2.34528759      -0.22610595       0.00000000
Si      -1.91215278      -1.34162811      -0.61078864       0.00000000
Si       1.76482602      -0.13962159      -1.75029248       0.00000000
Si       0.54056736      -0.68018895       2.33828485       0.00000000
Si       2.32844373      -1.36757808       0.41989140       0.00000000
Si       0.89567307      -2.30549112      -2.21422915       0.00000000
Si      -0.61584345      -3.30814062      -0.47043516       0.00000000
Si      -2.55532433       2.23106211       1.00396405       0.00000000
Si       0.47387610       1.45085256       3.29641569       0.00000000
Si       0.82626138       3.21530391       1.63225390       0.00000000
