10
Lattice="16.28999089631971 0.0 0.0 0.0 16.28999089631971 0.0 0.0 0.0 34.385447050020396" Properties=species:S:1:pos:R:3:initial_magmoms:R:1 pbc="T T T"
Si      -0.24540885       2.36953430       0.50773579       0.00000000
Si      -1.40776551      -0.98593596      -1.73515940       0.00000000
Si       2.15321220      -0.49964688      -1.07650579       0.00000000
Si      -0.92525571      -0.54297828       2.22594316       0.00000000
Si       2.04573078       3.07739996       0.51234345       0.00000000
Si       3.23755605       1.64139736      -0.98449028       0.00000000
Si      -0.46167489      -3.12825015      -2.09624118       0.00000000
Si      -1.75810640      -2.75638203       1.97128440       0.00000000
Si      -3.12493839       0.75939093       2.28216340       0.00000000
Si      -0.18096561      -3.97028025       0.26373653       0.00000000
