10
Lattice="16.28999089631971 0.0 0.0 0.0 16.28999089631971 0.0 0.0 0.0 34.385447050020396" Properties=species:S:1:pos:R:3:initial_magmoms:R:1 pbc="T T T"
Si      -1.35650088      -1.35612230      -1.35781329       0.00000000
Si       1.35858600       1.35885804      -1.35715997       0.00000000
Si      -1.35646830       1.35884175       1.36114868       0.00000000
Si       1.36194174      -1.35618366       1.36438092       0.00000000
Si      -2.71363707       0.00162085      -2.71511080       0.00000000
Si       0.00130320      -2.71276948      -2.71641745       0.00000000
Si       2.71595025       0.00018734      -2.71469818       0.00000000
Si      -2.71590464      -2.71542475      -0.00020631       0.00000000
Si       0.00076563       2.71674357      -2.71507642       0.00000000
Si       2.71656927      -2.71542475      -0.00041263       0.00000000
