10
Lattice="16.28999089631971 0.0 0.0 0.0 16.28999089631971 0.0 0.0 0.0 34.385447050020396" Properties=species:S:1:pos:R:3:initial_magmoms:R:1 pbc="T T T"
Si       1.35462753      -1.35924110      -1.36479354       0.00000000
Si      -1.36194174       1.35618366      -1.36438092       0.00000000
Si      -1.36979352      -1.35948545       1.37184256       0.00000000
Si       1.34918667       1.36392141       1.39230191       0.00000000
Si       2.70718623       2.71471590      -0.00333539       0.00000000
Si       2.71083519      -2.71264688      -0.00794304       0.00000000
Si      -2.71687878      -2.71254914      -0.00849321       0.00000000
Si      -2.71841004       2.71502541      -0.00323223       0.00000000
Si       2.71145421      -0.00005673      -2.72205667       0.00000000
Si      -0.00335574       2.71504170      -2.72154088       0.00000000
