10
Lattice="16.28999089631971 0.0 0.0 0.0 16.28999089631971 0.0 0.0 0.0 34.385447050020396" Properties=species:S:1:pos:R:3:initial_magmoms:R:1 pbc="T T T"
Si       0.93317265       1.68189363      -1.29952993       0.00000000
Si      -1.81394756      -1.01278188      -1.11137266       0.00000000
Si      -0.57445545       1.20264183       2.07643515       0.00000000
Si       1.64108718      -1.89814338       0.19114881       0.00000000
Si      -1.20456731      -1.15080705       2.95041055       0.00000000
Si       0.83921193      -2.25895711       2.41870808       0.00000000
Si       2.33176689       0.31845321      -2.55590609       0.00000000
Si      -0.43137223      -2.39505028      -2.55569978       0.00000000
Si       3.59173323      -0.92809017      -0.94291826       0.00000000
Si       1.73718189       3.53826945      -0.12086491       0.00000000
