10
Lattice="16.28999089631971 0.0 0.0 0.0 16.28999089631971 0.0 0.0 0.0 34.385447050020396" Properties=species:S:1:pos:R:3:initial_magmoms:R:1 pbc="T T T"
Si       1.19182527      -1.43600260      -1.49683373       0.00000000
Si      -2.29113963      -0.70786566      -0.00460765       0.00000000
Si       0.40941657       2.13801363      -1.26356273       0.00000000
Si       0.63856800      -1.78558667       2.19809093       0.00000000
Si      -2.04573078      -3.07739996      -0.51234345       0.00000000
Si      -0.23048721       1.48467060      -3.46419818       0.00000000
Si      -0.93525777       3.69248688      -0.06643272       0.00000000
Si       0.10748142      -3.57704684      -1.58884924       0.00000000
Si       3.23939682      -2.17959290      -0.38408566       0.00000000
Si       1.15290846      -0.50394418      -3.74275485       0.00000000
