10
Lattice="16.28999089631971 0.0 0.0 0.0 16.28999089631971 0.0 0.0 0.0 34.385447050020396" Properties=species:S:1:pos:R:3:initial_magmoms:R:1 pbc="T T T"
Si      -1.11980718       1.48118454       1.46876144       0.00000000
Si       1.59127236      -1.22175000       1.42541168       0.00000000
Si       1.11508308       1.74912246      -1.35749148       0.00000000
Si      -1.85591970      -0.84760128      -1.47498662       0.00000000
Si      -2.33543214       2.82554937       0.01895671       0.00000000
Si      -2.47987557       0.13598892       2.82193957       0.00000000
Si      -3.32110746       1.17182115      -1.40893214       0.00000000
Si       0.23491809      -2.58121566       2.81351513       0.00000000
Si      -0.51280920       3.67740234      -1.26946469       0.00000000
Si      -2.75571414      -2.81176803       0.13196798       0.00000000
