10
Lattice="16.28999089631971 0.0 0.0 0.0 16.28999089631971 0.0 0.0 0.0 34.385447050020396" Properties=species:S:1:pos:R:3:initial_magmoms:R:1 pbc="T T T"
Si      -1.35817875       1.35177678       1.35911994       0.00000000
Si       1.35669636       1.35573525      -1.35715997       0.00000000
Si       1.35226548      -1.35956340       1.36156131       0.00000000
Si      -1.35827649      -1.35923760      -1.35664419       0.00000000
Si      -2.69874801       0.00566892       2.71731147       0.00000000
Si       2.71425609       2.71332756       0.00037824       0.00000000
Si      -0.00140094       2.71358820      -2.71469818       0.00000000
Si       2.71393029      -0.00201996      -2.71504203       0.00000000
Si      -2.71650411       2.71311579      -0.00010316       0.00000000
Si      -2.71609686      -0.00135207      -2.71456063       0.00000000
