10
Lattice="16.28999089631971 0.0 0.0 0.0 16.28999089631971 0.0 0.0 0.0 34.385447050020396" Properties=species:S:1:pos:R:3:initial_magmoms:R:1 pbc="T T T"
Si      -1.34056926      -1.34610786       1.35819153       0.00000000
Si       1.35817875      -1.35177678      -1.35911994       0.00000000
Si      -1.35832536       1.36133901      -1.35922310       0.00000000
Si       1.36357074       1.37349135       1.38184873       0.00000000
Si      -2.73916350       0.01733256       2.61456770       0.00000000
Si       2.71044423      -2.71134018       0.00244137       0.00000000
Si      -2.71515204      -2.71103067       0.00254452       0.00000000
Si      -0.00009774      -2.71101438      -2.71576413       0.00000000
Si       2.71487511       0.00395847      -2.71627991       0.00000000
Si      -2.71508688       0.00377928      -2.71621114       0.00000000
