10
Lattice="16.28999089631971 0.0 0.0 0.0 16.28999089631971 0.0 0.0 0.0 34.385447050020396" Properties=species:S:1:pos:R:3:initial_magmoms:R:1 pbc="T T T"
Si      -0.34526655      -2.24779261       0.49054306       0.00000000
Si       1.67089788       1.27926022       1.03252678       0.00000000
Si      -2.04377924       1.10815006       0.53170246       0.00000000
Si       0.80187525       0.36081373      -2.22755928       0.00000000
Si      -0.83921193       2.25895711      -2.41870808       0.00000000
Si      -2.54837795      -2.50561444      -0.44364129       0.00000000
Si       1.70478108       0.41546668       3.26459055       0.00000000
Si      -3.68268749      -0.43562229      -0.30871272       0.00000000
Si      -1.41366738       3.46159894      -0.34227293       0.00000000
Si       3.68505864       0.72671971      -0.05821459       0.00000000
