10
Lattice="16.28999089631971 0.0 0.0 0.0 16.28999089631971 0.0 0.0 0.0 34.385447050020396" Properties=species:S:1:pos:R:3:initial_magmoms:R:1 pbc="T T T"
Si       1.44956565       1.32952464      -1.34962955       0.00000000
Si      -1.55688417      -1.40667408      -1.18096884       0.00000000
Si       0.75859272      -0.15680754       2.34041238       0.00000000
Si       2.56743432       0.10775835       0.72512071       0.00000000
Si      -0.39208401       1.84881726       1.93989046       0.00000000
Si      -0.62434683      -2.01082131       2.12244291       0.00000000
Si      -0.11271051       2.55946851      -2.77029948       0.00000000
Si       2.60667693      -0.17251110      -2.78357227       0.00000000
Si       2.92729671       2.63163321       0.25610295       0.00000000
Si      -2.81685051      -0.16013070      -2.79395668       0.00000000
