10
Lattice="16.28999089631971 0.0 0.0 0.0 16.28999089631971 0.0 0.0 0.0 34.385447050020396" Properties=species:S:1:pos:R:3:initial_magmoms:R:1 pbc="T T T"
Si      -1.33558452       1.68288732      -0.95729138       0.00000000
Si      -0.19811898      -2.42268138       0.22972930       0.00000000
Si       2.04830460       0.88441668      -1.04356452       0.00000000
Si      -1.55229039       0.32149944       2.13286170       0.00000000
Si       0.45243846       1.68570549       2.48796041       0.00000000
Si       2.00925747       2.45045583       0.77773048       0.00000000
Si       3.19898133      -1.12120812      -0.64304260       0.00000000
Si      -3.28268424      -0.24034266      -1.14507041       0.00000000
Si       1.81604178      -2.97522189      -0.86101208       0.00000000
Si       2.44038861      -0.96440058      -2.98345498       0.00000000
