10
Lattice="16.28999089631971 0.0 0.0 0.0 16.28999089631971 0.0 0.0 0.0 34.385447050020396" Properties=species:S:1:pos:R:3:initial_magmoms:R:1 pbc="T T T"
Si      -0.49769208      -1.48713039       1.77480584       0.00000000
Si      -1.25856540       1.88838567      -0.70558977       0.00000000
Si      -0.49344039      -1.51806510      -1.79313329       0.00000000
Si       2.20817466       0.90205875       0.32188235       0.00000000
Si       3.24179145      -0.78685587       1.57877430       0.00000000
Si      -0.96940161       3.40167780       1.44776567       0.00000000
Si      -1.24335054      -0.23700321      -3.60978625       0.00000000
Si       3.26894688       1.00567944      -1.78230187       0.00000000
Si      -2.79751428      -2.17116378       1.53441705       0.00000000
Si       0.88570359      -3.47574517       1.49624918       0.00000000
