10
Lattice="16.28999089631971 0.0 0.0 0.0 16.28999089631971 0.0 0.0 0.0 34.385447050020396" Properties=species:S:1:pos:R:3:initial_magmoms:R:1 pbc="T T T"
Si      -2.02204512      -0.32773851      -0.94756029       0.00000000
Si       1.22310207       1.94489568      -0.67316427       0.00000000
Si      -0.09746307      -0.56350368       2.33979344       0.00000000
Si      -0.28916379      -1.51329213      -2.15335544       0.00000000
Si       2.82167235       1.52924004       0.97795705       0.00000000
Si       1.80675648       0.78534090       2.98823456       0.00000000
Si      -2.51866206       1.71367542      -1.99267216       0.00000000
Si       1.04215275      -0.13810662      -3.58324067       0.00000000
Si       0.96940161      -3.40167780      -1.44776567       0.00000000
Si      -0.05009175       3.90332835      -0.44319427       0.00000000
