10
Lattice="16.28999089631971 0.0 0.0 0.0 16.28999089631971 0.0 0.0 0.0 34.385447050020396" Properties=species:S:1:pos:R:3:initial_magmoms:R:1 pbc="T T T"
Si       1.18659618       1.91518272      -0.76693344       0.00000000
Si       0.58160187      -0.47237742       2.25991600       0.00000000
Si      -2.33049627       0.14112027      -0.63059507       0.00000000
Si       1.00075986      -1.94237073      -1.18499194       0.00000000
Si      -2.61377937      -2.24717292      -0.41197227       0.00000000
Si       2.82712950       0.94970700      -2.43366576       0.00000000
Si      -0.90345969      -3.29121531      -1.83343306       0.00000000
Si       2.20949415      -2.40065730       2.17188921       0.00000000
Si       2.01567573      -1.19847159      -3.19526945       0.00000000
Si       3.13615080      -2.44726299      -0.09456003       0.00000000
