10
Lattice="16.28999089631971 0.0 0.0 0.0 16.28999089631971 0.0 0.0 0.0 34.385447050020396" Properties=species:S:1:pos:R:3:initial_magmoms:R:1 pbc="T T T"
Si       1.36019871       1.35268902       1.36526806       0.00000000
Si      -1.35309627      -1.35967906       1.36925678       0.00000000
Si       1.38311874      -1.29929692      -1.40922988       0.00000000
Si      -1.12660011       1.49481927      -1.45830482       0.00000000
Si       0.74341044       2.37135159      -2.62815993       0.00000000
Si      -2.16002142      -0.08570169      -2.94414005       0.00000000
Si       2.33127819       0.55965924      -2.77042468       0.00000000
Si      -2.70032814      -2.72106402       0.00075304       0.00000000
Si      -2.70940167       2.71339272      -0.02300732       0.00000000
Si      -2.71055826      -0.00280188       2.72748269       0.00000000
