10
Lattice="16.28999089631971 0.0 0.0 0.0 16.28999089631971 0.0 0.0 0.0 34.385447050020396" Properties=species:S:1:pos:R:3:initial_magmoms:R:1 pbc="T T T"
Si       1.35713619       1.35795069       1.35660980       0.00000000
Si       1.35746199      -1.35687718      -1.35822592       0.00000000
Si      -1.35770634      -1.35793766       1.35746944       0.00000000
Si      -1.35519768       1.35672894      -1.36238656       0.00000000
Si      -2.71590138      -2.71251089       0.00206313       0.00000000
Si      -0.00026064      -2.71436538       2.71449186       0.00000000
Si       2.71500543      -2.71399982       0.00044701       0.00000000
Si       2.71495656       0.00078192       2.71452625       0.00000000
Si       2.71461447       2.71508688      -0.00144419       0.00000000
Si      -2.71507059       0.00073305       2.71500765       0.00000000
