10
Lattice="16.28999089631971 0.0 0.0 0.0 16.28999089631971 0.0 0.0 0.0 34.385447050020396" Properties=species:S:1:pos:R:3:initial_magmoms:R:1 pbc="T T T"
Si      -0.95897601       1.98610938      -0.63142032       0.00000000
Si      -1.66456107      -1.02386722       1.23509156       0.00000000
Si       1.66118904       0.53069562       1.54015942       0.00000000
Si       0.95505012      -0.61248771      -2.10243056       0.00000000
Si       2.42080803       1.22543154      -1.95127205       0.00000000
Si      -1.01027322      -3.15635759       0.45921790       0.00000000
Si       3.50062326       0.74443671       0.05687356       0.00000000
Si       0.85234167       3.04249959      -1.73842602       0.00000000
Si       1.81138284      -1.45799410       2.84859518       0.00000000
Si       1.06575696      -3.28962608       1.59005273       0.00000000
