10
Lattice="16.28999089631971 0.0 0.0 0.0 16.28999089631971 0.0 0.0 0.0 34.385447050020396" Properties=species:S:1:pos:R:3:initial_magmoms:R:1 pbc="T T T"
Si      -1.64946024      -1.54538017       0.87751710       0.00000000
Si      -0.54400455       2.38935204       0.29777814       0.00000000
Si       0.35104950      -0.18648792      -2.46860139       0.00000000
Si      -2.48600061       1.16062992       0.26270496       0.00000000
Si       1.54401507       0.82116261       2.44635400       0.00000000
Si      -0.04385268       2.63285496       2.58861875       0.00000000
Si       3.20289093       1.70064342       0.75049719       0.00000000
Si      -2.94728454       0.17580168       2.27263862       0.00000000
Si       2.73672000       0.22747356      -2.62753102       0.00000000
Si      -0.40237929      -2.78152469       2.59830135       0.00000000
