10
Lattice="16.28999089631971 0.0 0.0 0.0 16.28999089631971 0.0 0.0 0.0 34.385447050020396" Properties=species:S:1:pos:R:3:initial_magmoms:R:1 pbc="T T T"
Si       1.34257293       1.35624024       1.38351987       0.00000000
Si      -1.37016819      -1.35899325       1.38307286       0.00000000
Si      -1.41579648       1.34962650      -1.40425086       0.00000000
Si       1.63163898      -1.10987028      -1.48885630       0.00000000
Si       2.71080261      -2.68876224       0.02487788       0.00000000
Si      -2.72072322       2.70464499       0.03385593       0.00000000
Si       2.69866656       2.73140946       0.01231687       0.00000000
Si      -2.72490975      -2.71551042      -0.00362079       0.00000000
Si       2.70614367      -0.00026064       2.74542503       0.00000000
Si      -0.01145187      -2.71661814       2.74542503       0.00000000
