10
Lattice="16.28999089631971 0.0 0.0 0.0 16.28999089631971 0.0 0.0 0.0 34.385447050020396" Properties=species:S:1:pos:R:3:initial_magmoms:R:1 pbc="T T T"
Si       1.34851878       1.35008262       1.36273041       0.00000000
Si       1.35435060      -1.35422028      -1.35887924       0.00000000
Si      -1.36107837       1.35917244      -1.35863854       0.00000000
Si      -1.35055503      -1.36086660       1.36867910       0.00000000
Si      -2.50766631       0.14116914       2.80262181       0.00000000
Si       2.70848943      -2.71443528       0.00058455       0.00000000
Si       2.71088406       0.00153126      -2.71665815       0.00000000
Si       2.71127502       2.71757925      -0.00017193       0.00000000
Si      -0.00358380      -2.71334385      -2.71614237       0.00000000
Si      -0.00361638       2.71629234      -2.71652061       0.00000000
