10
Lattice="16.28999089631971 0.0 0.0 0.0 16.28999089631971 0.0 0.0 0.0 34.385447050020396" Properties=species:S:1:pos:R:3:initial_magmoms:R:1 pbc="T T T"
Si       2.16806868       0.82173276      -0.03806471       0.00000000
Si      -0.08632071      -1.69303599      -1.60222519       0.00000000
Si      -2.25463374       0.63675981       0.22185503       0.00000000
Si      -0.11813508      -1.12475934       2.11278059       0.00000000
Si      -3.14063055      -1.61846037       0.20937310       0.00000000
Si      -2.63598264       1.59954768      -1.90897793       0.00000000
Si       3.44388519      -1.17411804       0.28220152       0.00000000
Si      -2.35128231      -2.08393083      -1.98823643       0.00000000
Si      -2.06013114      -2.35348146       2.07770741       0.00000000
Si       0.77691897      -3.70059930      -0.65359894       0.00000000
