10
Lattice="16.28999089631971 0.0 0.0 0.0 16.28999089631971 0.0 0.0 0.0 34.385447050020396" Properties=species:S:1:pos:R:3:initial_magmoms:R:1 pbc="T T T"
Si       1.35617508      -1.35744570      -1.36286796       0.00000000
Si      -1.35922131       1.36016613      -1.36334935       0.00000000
Si       1.36068741       1.35816246       1.37222080       0.00000000
Si      -1.36052451      -1.35597960       1.38673147       0.00000000
Si       2.71464705      -2.71251306      -0.00467642       0.00000000
Si      -2.71681362      -2.71441899      -0.00440134       0.00000000
Si       2.71140534       2.72047887      -0.00371363       0.00000000
Si      -0.06318891       2.60481987       2.82325309       0.00000000
Si      -0.00024435      -2.71379997      -2.72102510       0.00000000
Si      -2.71604799       2.71881729      -0.00656762       0.00000000
