10
Lattice="16.28999089631971 0.0 0.0 0.0 16.28999089631971 0.0 0.0 0.0 34.385447050020396" Properties=species:S:1:pos:R:3:initial_magmoms:R:1 pbc="T T T"
Si      -0.72747230       2.15025394      -0.67230464       0.00000000
Si      -1.33839943      -1.99247944      -0.09961470       0.00000000
Si       0.47283191       0.53140261       2.31517830       0.00000000
Si       1.54113011      -0.38233607      -1.87404230       0.00000000
Si       0.86128325      -3.29484865      -0.15583493       0.00000000
Si       0.24100892       0.77358604      -3.49043430       0.00000000
Si       1.22036372      -1.38607972       3.47756523       0.00000000
Si      -2.47972149      -2.15730166      -2.21800012       0.00000000
Si       0.59477885       3.02766592      -2.51509054       0.00000000
Si       2.27476655       2.46517222       2.17390217       0.00000000
