10
Lattice="16.28999089631971 0.0 0.0 0.0 16.28999089631971 0.0 0.0 0.0 34.385447050020396" Properties=species:S:1:pos:R:3:initial_magmoms:R:1 pbc="T T T"
Si      -0.05769918       1.74840570      -1.56422925       0.00000000
Si       2.19701601       0.05688468       0.90048659       0.00000000
Si      -0.81145377      -2.14817859      -0.76160369       0.00000000
Si      -1.64053332       0.96547572       1.66673232       0.00000000
Si       0.91090422       0.65246337      -3.40495203       0.00000000
Si      -1.82636964      -2.89207773       1.24867382       0.00000000
Si       1.40015808       3.38309091      -0.44329743       0.00000000
Si      -2.41816905       2.18647638      -1.81421159       0.00000000
Si      -2.41002405      -1.73252295      -2.41272501       0.00000000
Si      -2.82712950      -0.94970700       2.43366576       0.00000000
