10
Lattice="16.28999089631971 0.0 0.0 0.0 16.28999089631971 0.0 0.0 0.0 34.385447050020396" Properties=species:S:1:pos:R:3:initial_magmoms:R:1 pbc="T T T"
Si      -0.33480837       1.85513778      -1.58682050       0.00000000
Si      -0.40374765       1.21946940       2.10552526       0.00000000
Si       2.23647039      -1.07538435      -0.25207985       0.00000000
Si      -2.22280308      -1.59871689      -0.14820136       0.00000000
Si       1.48685346       1.04400981      -2.84556926       0.00000000
Si      -1.36415718      -0.45784674       3.50052097       0.00000000
Si       3.54126681       0.78260418      -1.35114251       0.00000000
Si      -2.53182438       1.79825310      -2.48730709       0.00000000
Si       3.26290329      -1.50288282       1.89030662       0.00000000
Si      -3.14945973      -1.55211120       2.11824788       0.00000000
