10
Lattice="16.28999089631971 0.0 0.0 0.0 16.28999089631971 0.0 0.0 0.0 34.385447050020396" Properties=species:S:1:pos:R:3:initial_magmoms:R:1 pbc="T T T"
Si      -1.29099879       1.35966114      -1.31600056       0.00000000
Si       1.32556617       1.38829896       1.34110196       0.00000000
Si      -1.38922749      -1.32660873       1.34429980       0.00000000
Si       1.29316536      -1.30556205      -1.57082438       0.00000000
Si      -2.12898897      -0.42321420      -2.60043458       0.00000000
Si       0.34766118       2.42219268      -2.64611636       0.00000000
Si       2.05146486       0.62133318      -2.90149520       0.00000000
Si      -0.47710152      -2.36892438      -2.84627214       0.00000000
Si       2.67695199      -2.66445756      -0.03470869       0.00000000
Si      -0.03301983      -2.67879276       2.69987804       0.00000000
