10
Lattice="16.28999089631971 0.0 0.0 0.0 16.28999089631971 0.0 0.0 0.0 34.385447050020396" Properties=species:S:1:pos:R:3:initial_magmoms:R:1 pbc="T T T"
Si      -1.08623349       1.58895918       1.33720264       0.00000000
Si       1.65237615      -1.13101470       1.29765248       0.00000000
Si      -1.80193464      -1.93376961       0.14127613       0.00000000
Si       0.89979444       1.96416675      -1.60695460       0.00000000
Si      -2.45051936       0.24091281       2.69237857       0.00000000
Si       0.28279440      -2.49329038       2.68866494       0.00000000
Si      -2.27193372       3.04373763      -0.07371900       0.00000000
Si       2.75571414       2.81176803      -0.13196798       0.00000000
Si      -2.27476655      -2.46517222      -2.17390217       0.00000000
Si       0.27583857       2.94775695       2.68997159       0.00000000
