10
Lattice="16.28999089631971 0.0 0.0 0.0 16.28999089631971 0.0 0.0 0.0 34.385447050020396" Properties=species:S:1:pos:R:3:initial_magmoms:R:1 pbc="T T T"
Si      -1.35682668       1.35865116       1.35678173       0.00000000
Si      -1.35684297      -1.35819504      -1.35781329       0.00000000
Si       1.35821133       1.35703845      -1.35777891       0.00000000
Si       1.35922131      -1.36016613       1.36334935       0.00000000
Si      -0.00187335       2.69371440       2.72748957       0.00000000
Si      -2.71303434       2.71205694      -0.00006877       0.00000000
Si      -2.71349046      -0.00127062      -2.71514519       0.00000000
Si      -2.71340901      -2.71544526       0.00030947       0.00000000
Si       0.00140094       2.71415835      -2.71531711       0.00000000
Si       2.71570590       2.71427238      -0.00041263       0.00000000
