10
Lattice="16.28999089631971 0.0 0.0 0.0 16.28999089631971 0.0 0.0 0.0 34.385447050020396" Properties=species:S:1:pos:R:3:initial_magmoms:R:1 pbc="T T T"
Si       1.42387632      -1.24665741      -1.45103229       0.00000000
Si       1.00791117       1.83716991       1.16886515       0.00000000
Si      -1.29790575       1.44906066      -1.45911288       0.00000000
Si      -1.23717663      -1.51591482       1.55638936       0.00000000
Si      -2.74199796      -2.59545312       0.02888379       0.00000000
Si      -2.62555704       2.77733097      -0.00646447       0.00000000
Si       0.06318891      -2.60481987      -2.82325309       0.00000000
Si       2.90730888      -2.56585419      -0.09315023       0.00000000
Si      -2.65285908       0.11399742      -2.82982072       0.00000000
Si      -0.77037039       3.57581694       1.32401238       0.00000000
