10
Lattice="16.28999089631971 0.0 0.0 0.0 16.28999089631971 0.0 0.0 0.0 34.385447050020396" Properties=species:S:1:pos:R:3:initial_magmoms:R:1 pbc="T T T"
Si       1.08623349      -1.58895918      -1.33720264       0.00000000
Si      -1.18570023       1.45477845      -1.41092164       0.00000000
Si      -1.36428587      -1.34804637       1.35517593       0.00000000
Si       1.36207206       1.35879777       1.35276894       0.00000000
Si       1.98602793       0.37520757      -2.94415725       0.00000000
Si      -2.44129596      -0.09826128      -2.66821178       0.00000000
Si       0.52084017       2.39463000      -2.87810277       0.00000000
Si      -0.71570115      -3.52272879      -1.19592652       0.00000000
Si      -2.69300513      -2.71578735      -0.02047998       0.00000000
Si       0.00009774      -2.71415835       2.70483986       0.00000000
