10
Lattice="16.28999089631971 0.0 0.0 0.0 16.28999089631971 0.0 0.0 0.0 34.385447050020396" Properties=species:S:1:pos:R:3:initial_magmoms:R:1 pbc="T T T"
Si       1.35925389      -1.35466019       1.35592209       0.00000000
Si      -1.35752715      -1.35633527      -1.35771014       0.00000000
Si       1.35829259       1.35811685      -1.35757259       0.00000000
Si      -1.35954711       1.35717203       1.35956695       0.00000000
Si       2.68473276       0.00961762       2.71748340       0.00000000
Si      -2.71174743      -0.00204765       2.71545466       0.00000000
Si      -2.71492398      -2.71385277      -0.00027508       0.00000000
Si      -2.71459818       0.00054246      -2.71473256       0.00000000
Si       2.71385277      -2.71606821       0.00027508       0.00000000
Si       0.00004887      -2.71496049      -2.71517957       0.00000000
