10
Lattice="16.28999089631971 0.0 0.0 0.0 16.28999089631971 0.0 0.0 0.0 34.385447050020396" Properties=species:S:1:pos:R:3:initial_magmoms:R:1 pbc="T T T"
Si      -1.28902770       1.33586145      -1.44198891       0.00000000
Si       1.81394756       1.01278188       1.11137266       0.00000000
Si      -1.85616405      -0.81477693       1.22309104       0.00000000
Si       1.38257532      -1.38226840      -1.44432713       0.00000000
Si      -2.66613543       2.65935879      -0.03751454       0.00000000
Si      -1.02952800      -1.68179752       3.22136802       0.00000000
Si       3.45503474      -0.88536150       1.30252146       0.00000000
Si      -2.66369193      -2.71132047      -0.04342884       0.00000000
Si       2.67099704      -2.73193286      -0.07674836       0.00000000
Si       2.74712021       2.69467551      -0.18815727       0.00000000
