10
Lattice="16.28999089631971 0.0 0.0 0.0 16.28999089631971 0.0 0.0 0.0 34.385447050020396" Properties=species:S:1:pos:R:3:initial_magmoms:R:1 pbc="T T T"
Si      -1.35479043      -1.35542574      -1.35918871       0.00000000
Si      -1.35808101       1.35669636       1.35640349       0.00000000
Si       1.35736406      -1.35832536       1.35650664       0.00000000
Si       1.35930276       1.35786924      -1.35516561       0.00000000
Si       2.70613620       0.00812871      -2.70916212       0.00000000
Si      -0.00252495       2.70964602      -2.71435432       0.00000000
Si       2.71294704       0.00017919       2.71346030       0.00000000
Si       0.00087966       2.71362078       2.71359784       0.00000000
Si      -2.71461447       0.00094482       2.71418239       0.00000000
Si       2.71468356       2.71437012       0.00085964       0.00000000
