10
Lattice="16.28999089631971 0.0 0.0 0.0 16.28999089631971 0.0 0.0 0.0 34.385447050020396" Properties=species:S:1:pos:R:3:initial_magmoms:R:1 pbc="T T T"
Si       1.80547676       0.97559181       1.10511450       0.00000000
Si      -1.19394297       1.49354865      -1.37662214       0.00000000
Si       1.47428802      -1.22399802      -1.38298345       0.00000000
Si      -1.71248625      -0.88479135       1.46451139       0.00000000
Si      -3.25498635       1.06976430       1.26005541       0.00000000
Si      -2.57061087      -2.60260443       0.04043731       0.00000000
Si       0.78610394       2.56666869       2.52578442       0.00000000
Si      -2.56339440       0.13533732      -2.72504820       0.00000000
Si       0.15112923      -2.58061293      -2.73054988       0.00000000
Si      -2.43392148       2.88681606       0.00973109       0.00000000
