10
Lattice="16.28999089631971 0.0 0.0 0.0 16.28999089631971 0.0 0.0 0.0 34.385447050020396" Properties=species:S:1:pos:R:3:initial_magmoms:R:1 pbc="T T T"
Si      -0.85812462      -1.71781308      -1.42407409       0.00000000
Si       1.71248625       0.88479135      -1.46451139       0.00000000
Si       1.13248080      -0.58759659       2.07829197       0.00000000
Si      -1.54250010       1.95455565      -0.20445598       0.00000000
Si      -2.55236607      -1.08779733       1.18485440       0.00000000
Si      -2.21366439      -0.34736796      -2.82665725       0.00000000
Si       1.84277367       1.78797411       2.67123495       0.00000000
Si       0.51854328       2.37834000      -2.84113354       0.00000000
Si      -1.83542688      -3.32166132       0.00880268       0.00000000
Si      -3.44491146       1.06214058      -1.37631267       0.00000000
