10
Lattice="16.28999089631971 0.0 0.0 0.0 16.28999089631971 0.0 0.0 0.0 34.385447050020396" Properties=species:S:1:pos:R:3:initial_magmoms:R:1 pbc="T T T"
Si      -2.38009932       0.02958264       0.05450096       0.00000000
Si       0.70486830       1.42110702       1.80496190       0.00000000
Si       0.62944560      -2.06853678       1.06330177       0.00000000
Si       0.90824895       0.31009644      -2.26916569       0.00000000
Si       2.77784966       2.22195600       1.01375232       0.00000000
Si      -0.19031607      -1.94989671       3.24622871       0.00000000
Si       0.91673604       0.02712285       3.75362065       0.00000000
Si      -3.24744408      -1.72608840      -1.24733279       0.00000000
Si      -0.09622503      -1.19602809      -3.85987174       0.00000000
Si      -3.51769518       1.93347639      -0.77130039       0.00000000
