10
Lattice="16.28999089631971 0.0 0.0 0.0 16.28999089631971 0.0 0.0 0.0 34.385447050020396" Properties=species:S:1:pos:R:3:initial_magmoms:R:1 pbc="T T T"
Si      -1.35387819       1.36083402       1.36338374       0.00000000
Si       1.36357074      -1.35650088       1.36190516       0.00000000
Si      -1.34257293      -1.35624024      -1.38351987       0.00000000
Si       1.35609363       1.37516922      -1.37120299       0.00000000
Si       0.28906605      -2.46611052      -2.87237617       0.00000000
Si      -2.71008585       2.71301805       0.00780550       0.00000000
Si      -2.71274112      -2.71523349      -0.00044701       0.00000000
Si      -2.71161711       0.00055386       2.72057809       0.00000000
Si       0.00374670      -2.71445157       2.72006231       0.00000000
Si       2.71634121      -2.71933857       0.00660201       0.00000000
