10
Lattice="16.28999089631971 0.0 0.0 0.0 16.28999089631971 0.0 0.0 0.0 34.385447050020396" Properties=species:S:1:pos:R:3:initial_magmoms:R:1 pbc="T T T"
Si      -1.67941755       0.99147456       1.35191275       0.00000000
Si       1.04602143      -1.72893915       1.35107718       0.00000000
Si      -1.16682012      -1.43534448      -1.67486934       0.00000000
Si       2.01169675       1.72884141      -0.11677304       0.00000000
Si      -0.32355198       2.34013995       2.72940828       0.00000000
Si       2.40380031      -0.39182337       2.73160895       0.00000000
Si      -3.06320418       2.35037007      -0.18420294       0.00000000
Si       2.56807682      -3.00172572      -0.03118762       0.00000000
Si      -2.74644513      -2.84980518      -0.14926043       0.00000000
Si       1.03778703       3.66016752       1.32299113       0.00000000
