10
Lattice="16.28999089631971 0.0 0.0 0.0 16.28999089631971 0.0 0.0 0.0 34.385447050020396" Properties=species:S:1:pos:R:3:initial_magmoms:R:1 pbc="T T T"
Si      -1.23997851       1.39326741       1.38635323       0.00000000
Si       1.34907644       1.35029439      -1.35196776       0.00000000
Si      -1.36945143      -1.35821133      -1.34842606       0.00000000
Si       1.19394297      -1.49354865       1.37662214       0.00000000
Si      -2.06104338      -0.42378435       2.63667755       0.00000000
Si       0.36549873       2.45273643       2.80097131       0.00000000
Si      -0.51854328      -2.37834000       2.84113354       0.00000000
Si       2.66823099      -2.71754667      -0.00636131       0.00000000
Si       2.70346789      -0.00061902      -2.70788985       0.00000000
Si       2.70879798       2.70759348      -0.00842444       0.00000000
