10
Lattice="16.28999089631971 0.0 0.0 0.0 16.28999089631971 0.0 0.0 0.0 34.385447050020396" Properties=species:S:1:pos:R:3:initial_magmoms:R:1 pbc="T T T"
Si      -1.20963024       1.58850306      -1.23120601       0.00000000
Si      -1.37845980      -0.87478929       1.73509063       0.00000000
Si       1.67410701       1.46274426       0.89274986       0.00000000
Si       1.29725415      -1.75374882      -1.09204802       0.00000000
Si       0.51158745      -1.95950781       2.58465234       0.00000000
Si       2.20669227       2.35967166      -1.19479180       0.00000000
Si       1.50912189      -3.14773299       0.85661074       0.00000000
Si      -3.04864092       0.39480444      -2.04486929       0.00000000
Si      -1.53872082       0.77994891       3.40285451       0.00000000
Si      -2.39546079       2.96714205       0.30637450       0.00000000
