10
Lattice="16.28999089631971 0.0 0.0 0.0 16.28999089631971 0.0 0.0 0.0 34.385447050020396" Properties=species:S:1:pos:R:3:initial_magmoms:R:1 pbc="T T T"
Si       1.89004725      -1.08471852       0.84956172       0.00000000
Si      -0.16026102       1.65473820       1.66776388       0.00000000
Si       1.37845980       0.87478929      -1.73509063       0.00000000
Si      -1.99785447      -1.03627206      -0.79320394       0.00000000
Si       0.91847907      -2.55130722       2.36764567       0.00000000
Si      -3.12251607       0.70742583      -1.95794283       0.00000000
Si       2.88758169      -2.27294370      -0.87847989       0.00000000
Si       0.12303837       3.77721117       0.65102003       0.00000000
Si       0.16882956       2.46329235      -2.96629663       0.00000000
Si      -1.50184026      -2.66900247      -2.45770120       0.00000000
