10
Lattice="16.28999089631971 0.0 0.0 0.0 16.28999089631971 0.0 0.0 0.0 34.385447050020396" Properties=species:S:1:pos:R:3:initial_magmoms:R:1 pbc="T T T"
Si      -0.53258526      -0.89692740       2.08754166       0.00000000
Si       1.97003834       1.02003093       0.76999375       0.00000000
Si       0.89405289      -1.27345446      -1.76146428       0.00000000
Si      -1.94106753       0.71288298      -1.14995315       0.00000000
Si       2.11764203       2.20944528      -1.22178439       0.00000000
Si      -2.20669227      -2.35967166       1.19479180       0.00000000
Si      -3.41632251      -0.77116860      -0.03641421       0.00000000
Si       1.16354324      -3.31257150      -0.68846581       0.00000000
Si       2.53704437       0.25417287      -2.56171724       0.00000000
Si      -1.22526864       1.05313221       3.28776636       0.00000000
