10
Lattice="16.28999089631971 0.0 0.0 0.0 16.28999089631971 0.0 0.0 0.0 34.385447050020396" Properties=species:S:1:pos:R:3:initial_magmoms:R:1 pbc="T T T"
Si      -0.98173314       2.10575943       0.00096279       0.00000000
Si       0.10726965      -0.23633532      -2.33226302       0.00000000
Si       1.94106753      -0.71288298       1.14995315       0.00000000
Si      -1.47525498      -1.48405158       1.11353894       0.00000000
Si       2.83512042      -1.98633744      -0.61151113       0.00000000
Si      -2.70726768       1.98436635       1.52888099       0.00000000
Si       1.71347994      -1.87082505      -2.69925910       0.00000000
Si      -2.66108553      -0.10541259       2.65111945       0.00000000
Si      -1.55830140       2.67805971      -2.16222689       0.00000000
Si       0.43129404       2.00412612      -3.21892665       0.00000000
