10
Lattice="16.28999089631971 0.0 0.0 0.0 16.28999089631971 0.0 0.0 0.0 34.385447050020396" Properties=species:S:1:pos:R:3:initial_magmoms:R:1 pbc="T T T"
Si      -1.22668587      -1.54543230      -1.32191487       0.00000000
Si       0.34828020       1.13854068      -2.06305921       0.00000000
Si       2.25544728      -0.12447189       1.05253912       0.00000000
Si      -2.20020885       1.75508460      -0.28584638       0.00000000
Si      -0.25270677       3.22647885      -0.75496730       0.00000000
Si       0.88861528       3.39130107       1.36341812       0.00000000
Si       0.49186026      -2.77140141      -2.56243933       0.00000000
Si      -2.64313395       1.88169048       2.07952984       0.00000000
Si       1.67346748      -0.66673341       3.47763056       0.00000000
Si       3.08829797       2.08893186       1.30719789       0.00000000
