10
Lattice="16.28999089631971 0.0 0.0 0.0 16.28999089631971 0.0 0.0 0.0 34.385447050020396" Properties=species:S:1:pos:R:3:initial_magmoms:R:1 pbc="T T T"
Si      -1.35587372      -1.34796492       1.39159701       0.00000000
Si       1.35345465       1.37842722       1.38365397       0.00000000
Si      -1.74797727       0.77269986      -1.45678498       0.00000000
Si       1.50061851      -1.36428750      -1.41049183       0.00000000
Si      -2.71365259      -2.68508070       0.01106524       0.00000000
Si       2.71624347      -2.70865233       0.03931290       0.00000000
Si      -2.72188700       2.70402597      -0.01702081       0.00000000
Si       2.70148473       2.73061125      -0.01064574       0.00000000
Si      -0.00545715      -2.69692353       2.74765665       0.00000000
Si       2.70993924       0.01446552       2.74473388       0.00000000
