10
Lattice="16.28999089631971 0.0 0.0 0.0 16.28999089631971 0.0 0.0 0.0 34.385447050020396" Properties=species:S:1:pos:R:3:initial_magmoms:R:1 pbc="T T T"
Si       1.35720530      -1.35723393      -1.35530315       0.00000000
Si      -1.35659859      -1.35798327       1.35743505       0.00000000
Si      -1.35780405       1.35777150      -1.35650664       0.00000000
Si       1.35775102       1.35873261       1.35726312       0.00000000
Si       0.00335956       2.70964602       2.71318522       0.00000000
Si       0.00182451      -2.71373481      -2.71132840       0.00000000
Si       2.71338364       0.00029322      -2.71256628       0.00000000
Si      -0.00064467      -2.71480995       2.71122524       0.00000000
Si      -2.71277367       0.00087966      -2.71521396       0.00000000
Si       2.71494748      -2.71503801       0.00079087       0.00000000
