10
Lattice="16.28999089631971 0.0 0.0 0.0 16.28999089631971 0.0 0.0 0.0 34.385447050020396" Properties=species:S:1:pos:R:3:initial_magmoms:R:1 pbc="T T T"
Si      -1.35041656       1.34895861      -1.35605963       0.00000000
Si      -1.35617834      -1.35752715       1.35726312       0.00000000
Si       1.35900954       1.35610992       1.35609402       0.00000000
Si       1.36163223      -1.35692442      -1.35516561       0.00000000
Si      -0.00043983      -2.71572219      -2.70793456       0.00000000
Si      -2.71155914      -2.71402803       0.00123788       0.00000000
Si      -2.71338364      -0.00029322       2.71256628       0.00000000
Si       2.71539639       2.71138905      -0.00292276       0.00000000
Si       0.00159642       2.71474479       2.71301329       0.00000000
Si      -2.71269944       2.71521720      -0.00244137       0.00000000
