10
Lattice="16.28999089631971 0.0 0.0 0.0 16.28999089631971 0.0 0.0 0.0 34.385447050020396" Properties=species:S:1:pos:R:3:initial_magmoms:R:1 pbc="T T T"
Si      -1.34907644      -1.35029439       1.35196776       0.00000000
Si       1.35972154       1.35729909       1.34354332       0.00000000
Si       1.35439146      -1.35091341      -1.35592209       0.00000000
Si      -1.36093556       1.36207206      -1.35447790       0.00000000
Si       2.63653989      -0.11362275       2.63537091       0.00000000
Si      -0.02732213       2.61698850       2.67838712       0.00000000
Si      -2.58905495       0.04297302       2.73832099       0.00000000
Si       2.71264677      -2.70640431       0.00247575       0.00000000
Si      -0.00335956      -2.70964602      -2.71318522       0.00000000
Si       2.71162050       0.00539199      -2.71273820       0.00000000
