10
Lattice="16.28999089631971 0.0 0.0 0.0 16.28999089631971 0.0 0.0 0.0 34.385447050020396" Properties=species:S:1:pos:R:3:initial_magmoms:R:1 pbc="T T T"
Si      -1.80547676      -0.97559181      -1.10511450       0.00000000
Si       0.98619660       1.75462848      -1.19833350       0.00000000
Si      -1.01937281       1.59107688       1.42066992       0.00000000
Si       1.84117725      -1.68650370      -0.03665491       0.00000000
Si      -0.33118873      -2.19958983      -2.48809795       0.00000000
Si      -1.67518934      -0.07240905       3.03063184       0.00000000
Si       1.47663963      -2.09890134       2.34842419       0.00000000
Si       2.42237187       0.51846183      -2.50068303       0.00000000
Si       1.04519898       2.80113066       1.90124120       0.00000000
Si       2.73453714       2.52426582       0.20363073       0.00000000
