10
Lattice="16.28999089631971 0.0 0.0 0.0 16.28999089631971 0.0 0.0 0.0 34.385447050020396" Properties=species:S:1:pos:R:3:initial_magmoms:R:1 pbc="T T T"
Si      -0.01738143       0.62457489      -2.23684335       0.00000000
Si       2.23811568      -0.04665456       0.63135155       0.00000000
Si      -1.46725333       1.59562179       1.03170153       0.00000000
Si      -0.54797931      -2.47107897      -0.12605712       0.00000000
Si      -2.08195322      -0.58547889      -2.71741463       0.00000000
Si       2.99379249      -1.54067562      -1.22886779       0.00000000
Si      -2.73776975      -2.24896482      -1.10745271       0.00000000
Si      -0.41752899       1.66856841       3.33012925       0.00000000
Si      -3.18216095       0.25645347       2.04263424       0.00000000
Si       0.33674688       2.85777099      -2.66391084       0.00000000
