10
Lattice="16.28999089631971 0.0 0.0 0.0 16.28999089631971 0.0 0.0 0.0 34.385447050020396" Properties=species:S:1:pos:R:3:initial_magmoms:R:1 pbc="T T T"
Si       0.26949036      -2.03911704       1.07299847       0.00000000
Si      -0.89405289       1.27345446       1.76146428       0.00000000
Si      -1.12164048       0.11551239      -2.08774797       0.00000000
Si       1.64299148       1.52762733      -0.80025296       0.00000000
Si       0.59326714       1.45468071      -3.09868068       0.00000000
Si      -2.83512042       1.98633744       0.61151113       0.00000000
Si       1.07598545       2.29348539       2.53145803       0.00000000
Si       1.48005890      -1.51576821       2.98513987       0.00000000
Si      -2.72785077       1.75000212      -1.72075189       0.00000000
Si       1.22358914       3.48289974       0.53967989       0.00000000
