10
Lattice="16.28999089631971 0.0 0.0 0.0 16.28999089631971 0.0 0.0 0.0 34.385447050020396" Properties=species:S:1:pos:R:3:initial_magmoms:R:1 pbc="T T T"
Si      -0.94609062       2.14231419       0.36108178       0.00000000
Si       1.75511718       0.19246635      -1.62584800       0.00000000
Si      -1.76681503      -1.14986223      -1.22051213       0.00000000
Si       0.28070928      -0.84203010       2.35997771       0.00000000
Si       0.51939036       0.02873556      -3.63478448       0.00000000
Si      -3.20359859       1.63488069       0.95192725       0.00000000
Si       0.46167489       3.12825015       2.09624118       0.00000000
Si      -0.71345313      -1.99718658      -3.17532588       0.00000000
Si      -3.06001853      -2.27506140       0.45254712       0.00000000
Si       2.61488709       2.62860327       1.01973539       0.00000000
