10
Lattice="16.28999089631971 0.0 0.0 0.0 16.28999089631971 0.0 0.0 0.0 34.385447050020396" Properties=species:S:1:pos:R:3:initial_magmoms:R:1 pbc="T T T"
Si      -2.21692402      -0.72190764      -0.51131188       0.00000000
Si       0.28328310       2.38829319      -0.21862279       0.00000000
Si       1.71031968      -1.04404239      -1.42146079       0.00000000
Si       0.38708298      -0.73078569       2.53242082       0.00000000
Si       2.61377937       2.24717292       0.41197227       0.00000000
Si       1.57472172      -3.16153062      -0.03644859       0.00000000
Si       3.61453923       0.30480219      -0.77301967       0.00000000
Si      -3.05744471       0.95526189      -2.12605338       0.00000000
Si      -2.32311038      -2.74437630      -1.69688837       0.00000000
Si      -1.29385769       3.60219141       1.48892507       0.00000000
