10
Lattice="16.28999089631971 0.0 0.0 0.0 16.28999089631971 0.0 0.0 0.0 34.385447050020396" Properties=species:S:1:pos:R:3:initial_magmoms:R:1 pbc="T T T"
Si      -1.34708526      -1.35306369      -1.38033577       0.00000000
Si       1.36979352       1.35948545      -1.37184256       0.00000000
Si       1.21138956      -1.51641981       1.41736892       0.00000000
Si      -1.44875115       1.37626572       1.34835729       0.00000000
Si       2.46259188       0.03034827       2.68870276       0.00000000
Si      -2.72361307      -0.13097160       2.57388969       0.00000000
Si      -2.70041773      -2.71868697      -0.03789278       0.00000000
Si       2.71971324      -2.70808218      -0.00849321       0.00000000
Si       2.71898019       2.72340685       0.02045935       0.00000000
Si      -2.70805286       0.00024435      -2.73642979       0.00000000
