10
Lattice="16.28999089631971 0.0 0.0 0.0 16.28999089631971 0.0 0.0 0.0 34.385447050020396" Properties=species:S:1:pos:R:3:initial_magmoms:R:1 pbc="T T T"
Si       1.82829186       1.38196215      -0.24723150       0.00000000
Si      -0.14760369      -1.18941435       1.99177813       0.00000000
Si       0.41940234      -1.95527241      -1.33993285       0.00000000
Si      -1.39552846       1.90462258      -0.47775167       0.00000000
Si      -2.11764203      -2.20944528       1.22178439       0.00000000
Si       2.00003733       1.09239111      -2.59397080       0.00000000
Si       2.42978382      -2.59445943      -0.19785397       0.00000000
Si      -0.02821428       0.32371488      -3.61913910       0.00000000
Si       1.37940462       3.17950568       1.20125626       0.00000000
Si      -1.22358914      -3.48289974      -0.53967989       0.00000000
