10
Lattice="16.28999089631971 0.0 0.0 0.0 16.28999089631971 0.0 0.0 0.0 34.385447050020396" Properties=species:S:1:pos:R:3:initial_magmoms:R:1 pbc="T T T"
Si       0.94609062      -2.14231419      -0.36108178       0.00000000
Si      -2.25750797      -0.50743350       0.59084547       0.00000000
Si      -0.28809028       1.13406093      -2.12392148       0.00000000
Si       1.40776551       0.98593596       1.73515940       0.00000000
Si      -2.47411610       1.92337659      -1.75582506       0.00000000
Si       3.56097771       0.48628908       0.65865361       0.00000000
Si      -3.36674294      -0.29714589      -1.47231689       0.00000000
Si      -0.82072441      -3.29217642      -1.58159391       0.00000000
Si      -2.85849494       1.58050467       1.89893737       0.00000000
Si       1.22679990      -2.98434429       1.99889592       0.00000000
