10
Lattice="10.86 0.0 0.0 0.0 10.86 0.0 0.0 0.0 10.86" Properties=species:S:1:pos:R:3:initial_magmoms:R:1 pbc="T T T"
Si      -1.40424144       1.44287046       0.94878390       0.00000000
Si      -1.07176254      -1.12507428      -1.71460938       0.00000000
Si       1.51944432      -1.28850642       1.25463408       0.00000000
Si       0.03408954      -2.51431806       2.36294052       0.00000000
Si      -2.68091046       0.20068194       2.36294052       0.00000000
Si       2.74908954       0.20068194       2.36294052       0.00000000
Si      -2.68091046      -2.51431806      -0.35205948       0.00000000
Si       2.74908954      -2.51431806      -0.35205948       0.00000000
Si       0.03408954       2.91568194       2.36294052       0.00000000
Si       0.03408954      -2.51431806      -3.06705948       0.00000000
