10
Lattice="10.86 0.0 0.0 0.0 10.86 0.0 0.0 0.0 10.86" Properties=species:S:1:pos:R:3:initial_magmoms:R:1 pbc="T T T"
Si       1.35750000       1.35750000       1.35750000       0.00000000
Si      -1.35750000      -1.35750000       1.35750000       0.00000000
Si       1.35750000      -1.35750000      -1.35750000       0.00000000
Si      -1.35750000       1.35750000      -1.35750000       0.00000000
Si      -2.66526120      -2.42865438      -0.15553692       0.00000000
Si      -0.01023012      -2.54936328       2.64974226       0.00000000
Si      -2.46335208       2.74674378      -0.00504990       0.00000000
Si       0.01830996      -2.61126528      -2.70975462       0.00000000
Si      -0.20005206       2.64763542      -2.72999766       0.00000000
Si      -2.71500000       0.00000000      -2.71500000       0.00000000
