10
Lattice="10.86 0.0 0.0 0.0 10.86 0.0 0.0 0.0 10.86" Properties=species:S:1:pos:R:3:initial_magmoms:R:1 pbc="T T T"
Si      -1.35750000      -1.35750000       1.35750000       0.00000000
Si       1.35750000      -1.35750000      -1.35750000       0.00000000
Si      -1.35750000       1.35750000      -1.35750000       0.00000000
Si       1.35750000       1.35750000       1.35750000       0.00000000
Si       2.51494794      -0.06736458       2.70000234       0.00000000
Si       2.84285478      -0.13168836      -2.46580644       0.00000000
Si      -0.08083098       2.59968852      -2.77165662       0.00000000
Si       0.00000000      -2.71500000      -2.71500000       0.00000000
Si      -2.71500000       0.00000000      -2.71500000       0.00000000
Si      -2.71500000       0.00000000       2.71500000       0.00000000
