10
Lattice="10.86 0.0 0.0 0.0 10.86 0.0 0.0 0.0 10.86" Properties=species:S:1:pos:R:3:initial_magmoms:R:1 pbc="T T T"
Si       1.17346644      -1.12187058      -1.52866446       0.00000000
Si      -1.54153356      -1.12187058       1.18633554       0.00000000
Si       1.17346644       1.59312942       1.18633554       0.00000000
Si       2.53096644      -2.47937058      -0.17116446       0.00000000
Si      -0.18403356      -2.47937058       2.54383554       0.00000000
Si       2.53096644       0.23562942       2.54383554       0.00000000
Si       0.05077050      -2.36126808      -2.94892440       0.00000000
Si      -2.77117878      -2.61105894       0.07802910       0.00000000
Si       2.53096644       0.23562942      -2.88616446       0.00000000
Si      -2.89903356       0.23562942       2.54383554       0.00000000
