10
Lattice="16.28999089631971 0.0 0.0 0.0 16.28999089631971 0.0 0.0 0.0 34.61538196595647" Properties=species:S:1:pos:R:3:initial_magmoms:R:1 pbc="T T T"
Si      -2.01731192      -0.30765294      -1.19374673       0.00000000
Si      -0.59419893       1.80975125       1.46931994       0.00000000
Si       1.26882810       0.85256973      -1.88577783       0.00000000
Si       0.90890055      -1.95121620       1.16238518       0.00000000
Si      -2.96643248       1.57321231       1.63080079       0.00000000
Si       2.89183338      -0.81912636      -2.22663569       0.00000000
Si      -0.29034319       3.72908141       0.08525773       0.00000000
Si       1.60893072       3.15438650      -1.24037368       0.00000000
Si      -3.24284120       1.75219054      -0.70373111       0.00000000
Si       3.17806497      -1.27066887       1.61619309       0.00000000
