10
Lattice="16.28999089631971 0.0 0.0 0.0 16.28999089631971 0.0 0.0 0.0 34.61538196595647" Properties=species:S:1:pos:R:3:initial_magmoms:R:1 pbc="T T T"
Si       0.78892470       1.74434949       1.42407557       0.00000000
Si       0.06100605       0.19321569      -2.43460502       0.00000000
Si      -1.80906152      -0.97534746       1.35079131       0.00000000
Si       1.63701468      -1.92899664      -0.03105001       0.00000000
Si      -2.64025551       1.07328294      -1.12101977       0.00000000
Si       2.13566787       0.51145713       2.87034858       0.00000000
Si       3.30659307      -0.86801265       1.33550515       0.00000000
Si      -0.57531393      -2.22115779       2.88132166       0.00000000
Si       0.51955326       2.42437554      -3.05470532       0.00000000
Si      -2.63754485      -2.92858362       0.12655391       0.00000000
