10
Lattice="16.28999089631971 0.0 0.0 0.0 16.28999089631971 0.0 0.0 0.0 34.61538196595647" Properties=species:S:1:pos:R:3:initial_magmoms:R:1 pbc="T T T"
Si      -1.35311256       1.35567286      -1.36031604       0.00000000
Si      -1.35615879      -1.35785248       1.35726989       0.00000000
Si       1.35889551       1.35760323       1.35702758       0.00000000
Si       1.35953082      -1.35770587      -1.36170066       0.00000000
Si       0.00879660       2.71149445      -2.71214439       0.00000000
Si      -2.71337643       2.71442665      -0.00038077       0.00000000
Si      -2.71357191      -0.00006115       2.71426285       0.00000000
Si       2.71379997       2.71486648      -0.00048462       0.00000000
Si      -2.71502172      -2.71445110      -0.00062308       0.00000000
Si       0.00094482      -2.71492351       2.71467823       0.00000000
