10
Lattice="16.28999089631971 0.0 0.0 0.0 16.28999089631971 0.0 0.0 0.0 34.61538196595647" Properties=species:S:1:pos:R:3:initial_magmoms:R:1 pbc="T T T"
Si       1.35490446       1.35726325      -1.35751219       0.00000000
Si       1.35666378      -1.35707517       1.35799681       0.00000000
Si      -1.35725022       1.35755647       1.35765065       0.00000000
Si      -1.35889551      -1.35760323      -1.35702758       0.00000000
Si       0.00052128       2.71661488      -2.71156285       0.00000000
Si      -2.71200807      -0.00193036      -2.71734362       0.00000000
Si       2.71383255       2.71555603      -0.00017308       0.00000000
Si      -2.71497285       2.71501846       0.00017308       0.00000000
Si      -2.71524978      -0.00096274       2.71478208       0.00000000
Si      -0.00158013      -2.71555344       2.71460900       0.00000000
