10
Lattice="16.28999089631971 0.0 0.0 0.0 16.28999089631971 0.0 0.0 0.0 34.61538196595647" Properties=species:S:1:pos:R:3:initial_magmoms:R:1 pbc="T T T"
Si       2.29956156      -0.32962815      -0.26376936       0.00000000
Si      -1.56120102      -0.51722379      -1.72270468       0.00000000
Si      -0.20127924      -1.20783834       2.05016637       0.00000000
Si      -0.60404949       2.34323505       0.42175405       0.00000000
Si      -3.46047493       0.05747112      -0.39707327       0.00000000
Si       2.92408758       0.70310898       1.79993164       0.00000000
Si       1.16682012       0.16373079       3.39805549       0.00000000
Si      -2.88864543       2.00130795       0.82187347       0.00000000
Si       2.83040379       1.22430753      -1.91779708       0.00000000
Si      -1.07360874       1.02592791      -3.48791707       0.00000000
