10
Lattice="16.28999089631971 0.0 0.0 0.0 16.28999089631971 0.0 0.0 0.0 34.61538196595647" Properties=species:S:1:pos:R:3:initial_magmoms:R:1 pbc="T T T"
Si      -0.62452602      -1.03273713      -2.06370100       0.00000000
Si       2.00984391      -0.81572175       1.05047358       0.00000000
Si       0.34044471       2.32525089      -0.62608876       0.00000000
Si      -1.75726746      -0.53937819       1.59812385       0.00000000
Si       2.44343484       2.47788819       0.36346171       0.00000000
Si      -2.92408758      -0.70310898      -1.79993164       0.00000000
Si       2.58781311       1.16817219       2.27655110       0.00000000
Si      -3.12536682      -1.91094732       0.25023474       0.00000000
Si       1.13896422      -2.61577327       2.37167422       0.00000000
Si      -0.09368379       0.52119855      -3.71772872       0.00000000
