10
Lattice="16.28999089631971 0.0 0.0 0.0 16.28999089631971 0.0 0.0 0.0 34.61538196595647" Properties=species:S:1:pos:R:3:initial_magmoms:R:1 pbc="T T T"
Si       1.25602416       1.70085519      -1.27080061       0.00000000
Si      -1.76914287       1.62223965       0.58780413       0.00000000
Si      -0.66244914      -1.46430810      -2.09509716       0.00000000
Si      -0.48286818      -1.93682398       1.88761387       0.00000000
Si       2.16104769       0.68115006       1.94919121       0.00000000
Si      -0.37504467       3.50018343      -1.43505069       0.00000000
Si      -2.23980984      -2.98428239       0.79566515       0.00000000
Si      -3.27660318       0.49700790       1.93878582       0.00000000
Si      -1.78715961      -0.63969201       3.34909689       0.00000000
Si      -2.63122596       2.38501890      -1.49905457       0.00000000
