10
Lattice="16.28999089631971 0.0 0.0 0.0 16.28999089631971 0.0 0.0 0.0 34.61538196595647" Properties=species:S:1:pos:R:3:initial_magmoms:R:1 pbc="T T T"
Si       2.20465602      -0.72358551      -0.22562319       0.00000000
Si      -0.89450019      -0.13097160       2.15878950       0.00000000
Si      -0.56503494       2.24117820      -0.48870024       0.00000000
Si      -1.73573208      -1.74720024      -0.31974246       0.00000000
Si      -0.38955906      -2.26470096      -2.11136640       0.00000000
Si      -3.09917250       0.27065835       1.23140829       0.00000000
Si       1.67993883      -2.88147294       0.52210410       0.00000000
Si      -0.54714852      -3.29872500       1.13396593       0.00000000
Si      -2.87479404       2.10945726      -0.21766164       0.00000000
Si       3.25764162       0.76106880       1.32324295       0.00000000
