10
Lattice="16.28999089631971 0.0 0.0 0.0 16.28999089631971 0.0 0.0 0.0 34.61538196595647" Properties=species:S:1:pos:R:3:initial_magmoms:R:1 pbc="T T T"
Si       1.83264129       0.95237856      -1.13439205       0.00000000
Si      -1.17092520       1.37946978       1.53484343       0.00000000
Si      -1.66957839      -1.06098399      -1.36655516       0.00000000
Si       1.50636888      -1.33669224       1.51195227       0.00000000
Si      -2.51766837       2.61236214       0.08857043       0.00000000
Si      -3.30659307       0.86801265      -1.33550515       0.00000000
Si      -2.57981472      -2.77330734       0.10198043       0.00000000
Si       2.77161318      -2.67555105      -0.01593001       0.00000000
Si      -2.54065356       0.02158425       2.89780063       0.00000000
Si       0.17938548      -2.68864821       2.89807755       0.00000000
