10
Lattice="16.28999089631971 0.0 0.0 0.0 16.28999089631971 0.0 0.0 0.0 34.61538196595647" Properties=species:S:1:pos:R:3:initial_magmoms:R:1 pbc="T T T"
Si       1.33336908       1.36748034       1.37222374       0.00000000
Si       1.35856971      -1.35729909      -1.36149296       0.00000000
Si      -1.35995436       1.35656604      -1.36107758       0.00000000
Si      -1.34996859      -1.36044306       1.38271221       0.00000000
Si      -2.71435383       2.71529865      -0.00231923       0.00000000
Si       2.71381626       2.71639008       0.00536539       0.00000000
Si      -2.71624347      -2.71461447       0.00131539       0.00000000
Si       2.71331127      -2.71761183      -0.00013846       0.00000000
Si      -0.00039096       2.71463076      -2.71827823       0.00000000
Si       2.71520091      -0.00037467      -2.71876285       0.00000000
