10
Lattice="16.28999089631971 0.0 0.0 0.0 16.28999089631971 0.0 0.0 0.0 34.61538196595647" Properties=species:S:1:pos:R:3:initial_magmoms:R:1 pbc="T T T"
Si       1.56120102       0.51722379       1.72270468       0.00000000
Si      -1.89927391       0.57469491       1.32563141       0.00000000
Si       0.48759228       1.54315170      -1.76521239       0.00000000
Si      -0.34010262      -2.30181677      -0.64540416       0.00000000
Si       0.95715153       2.86045884       2.14445873       0.00000000
Si      -2.20312965      -1.34463524       2.70969361       0.00000000
Si      -1.60893072      -3.15438650       1.24037368       0.00000000
Si      -1.32744441       2.51853174       2.54457815       0.00000000
Si       2.86128963       1.68990831      -1.99772404       0.00000000
Si      -0.26200836       0.63659691      -3.91919035       0.00000000
