10
Lattice="16.28999089631971 0.0 0.0 0.0 16.28999089631971 0.0 0.0 0.0 34.61538196595647" Properties=species:S:1:pos:R:3:initial_magmoms:R:1 pbc="T T T"
Si       0.73391337      -1.37771046       1.71844698       0.00000000
Si       1.99759383       1.08207954      -0.53176179       0.00000000
Si      -1.32568020       1.86908202       0.51743102       0.00000000
Si      -0.87495219      -1.71455508      -1.37398912       0.00000000
Si       1.28309814      -2.51750547      -1.72412391       0.00000000
Si      -1.33437906      -2.46712050       1.83721242       0.00000000
Si      -2.19256884       1.16897040       2.61003587       0.00000000
Si       2.11010886      -2.88284130       0.54107334       0.00000000
Si      -2.25178299      -0.61455654      -2.91292064       0.00000000
Si       2.20092561       3.05416323       0.74163497       0.00000000
