10
Lattice="16.28999089631971 0.0 0.0 0.0 16.28999089631971 0.0 0.0 0.0 34.61538196595647" Properties=species:S:1:pos:R:3:initial_magmoms:R:1 pbc="T T T"
Si       0.89099784       1.85015697      -1.09571834       0.00000000
Si       1.34674317      -1.23289236       1.44627301       0.00000000
Si      -0.78892470      -1.74434949      -1.42407557       0.00000000
Si      -1.39147551       1.46977956       1.42671530       0.00000000
Si       2.51766837      -2.61236214      -0.08857043       0.00000000
Si      -2.59798621      -2.71969695      -0.07328427       0.00000000
Si      -0.02298519      -2.59077789       2.80923020       0.00000000
Si       1.73631852       1.20215313      -3.20226874       0.00000000
Si      -0.90743445       3.52039022      -1.25565433       0.00000000
Si       2.69438229       0.12554703       2.80815712       0.00000000
