10
Lattice="16.28999089631971 0.0 0.0 0.0 16.28999089631971 0.0 0.0 0.0 34.61538196595647" Properties=species:S:1:pos:R:3:initial_magmoms:R:1 pbc="T T T"
Si       0.55570077      -0.69100551       2.22538953       0.00000000
Si       1.77880284       0.98489244      -1.34446219       0.00000000
Si      -1.89731259       1.59007897      -0.05583464       0.00000000
Si      -1.00761795      -1.81801287      -1.37419682       0.00000000
Si       0.45080946       2.19515962      -2.85165138       0.00000000
Si      -2.27913390      -0.52261578      -2.85421292       0.00000000
Si      -1.05705810       3.41124722      -1.46056224       0.00000000
Si      -2.98571265      -2.52654642      -0.23545396       0.00000000
Si       2.86122447       2.73977342      -0.08653850       0.00000000
Si      -2.00252970       2.67474374       2.19378567       0.00000000
