10
Lattice="16.28999089631971 0.0 0.0 0.0 16.28999089631971 0.0 0.0 0.0 34.61538196595647" Properties=species:S:1:pos:R:3:initial_magmoms:R:1 pbc="T T T"
Si      -1.34964279      -0.39464154       1.88816630       0.00000000
Si       0.25646976       1.93620401      -1.37537374       0.00000000
Si       2.09733750      -0.76787802       0.89055043       0.00000000
Si      -1.33677369      -1.10657970      -1.67704696       0.00000000
Si       0.07392402      -0.30268449       3.71935564       0.00000000
Si       3.33063711      -1.36506942      -0.99733894       0.00000000
Si      -3.11805261       0.49018239      -2.06127792       0.00000000
Si       1.56633237      -1.92440286       2.85223984       0.00000000
Si       1.97987031       1.43734540      -2.94050911       0.00000000
Si      -1.81433133       2.46574955      -2.35862421       0.00000000
