10
Lattice="16.28999089631971 0.0 0.0 0.0 16.28999089631971 0.0 0.0 0.0 34.61538196595647" Properties=species:S:1:pos:R:3:initial_magmoms:R:1 pbc="T T T"
Si       1.10916981       0.01431891      -2.09928563       0.00000000
Si       1.06570809       1.79610349       1.18239288       0.00000000
Si       0.30680586      -1.91835927       1.41743145       0.00000000
Si      -2.39329422       0.37304100      -0.28045398       0.00000000
Si       0.65233305      -0.74334528       3.35911316       0.00000000
Si      -1.38657222       0.65687796       3.15384383       0.00000000
Si      -1.84125870      -3.07144692      -1.00166587       0.00000000
Si      -2.98941048      -1.23351138      -1.85535089       0.00000000
Si      -0.65453220       2.82485609       2.36963191       0.00000000
Si      -1.77176556      -3.04453584       1.36772374       0.00000000
