10
Lattice="16.28999089631971 0.0 0.0 0.0 16.28999089631971 0.0 0.0 0.0 34.61538196595647" Properties=species:S:1:pos:R:3:initial_magmoms:R:1 pbc="T T T"
Si       1.24765110      -1.42121290      -1.41801991       0.00000000
Si      -1.77166782      -0.84637953       1.32760449       0.00000000
Si      -1.44746424       1.32600600      -1.42819684       0.00000000
Si       1.81771965       0.74893275       1.47108532       0.00000000
Si       0.34841052       0.76898574       3.47178629       0.00000000
Si      -2.80748376       1.44471123       1.76092008       0.00000000
Si       2.60268588      -0.04370607      -2.79765135       0.00000000
Si       2.65165362       2.74059702       0.25040781       0.00000000
Si      -0.87581556      -1.30195056       3.50020553       0.00000000
Si      -2.85408945      -2.60126050       0.06968080       0.00000000
