10
Lattice="16.28999089631971 0.0 0.0 0.0 16.28999089631971 0.0 0.0 0.0 34.61538196595647" Properties=species:S:1:pos:R:3:initial_magmoms:R:1 pbc="T T T"
Si       1.34220315       0.72144500       1.77757009       0.00000000
Si       0.30385574       1.91933015      -1.38406221       0.00000000
Si      -2.37223355      -0.23653894       0.16148085       0.00000000
Si       0.59419893      -1.80975125      -1.46931994       0.00000000
Si      -2.64864227      -0.05756072      -2.17305105       0.00000000
Si      -1.42311299      -2.11740419      -2.66306667       0.00000000
Si      -1.75482626       2.10997202      -2.49975121       0.00000000
Si       2.20312965       1.34463524      -2.70969361       0.00000000
Si       3.56305143       0.65402069       1.06317744       0.00000000
Si       1.05992188       3.02408537       2.12185487       0.00000000
