10
Lattice="16.28999089631971 0.0 0.0 0.0 16.28999089631971 0.0 0.0 0.0 34.61538196595647" Properties=species:S:1:pos:R:3:initial_magmoms:R:1 pbc="T T T"
Si      -1.35786924      -1.35637056       1.35796219       0.00000000
Si       1.35796698       1.35842310       1.35848142       0.00000000
Si      -1.35829278       1.36146933      -1.35723527       0.00000000
Si       1.35873261      -1.35778779      -1.36055835       0.00000000
Si      -2.71788876      -0.01225008      -2.70656438       0.00000000
Si       2.71492398       2.71438641       0.00076154       0.00000000
Si      -2.71570590       2.71384884       0.00107308       0.00000000
Si      -2.71427238       0.00014661       2.71561285       0.00000000
Si       0.00037467      -2.71381626       2.71616669       0.00000000
Si       2.71650411      -2.71451673       0.00013846       0.00000000
