10
Lattice="16.28999089631971 0.0 0.0 0.0 16.28999089631971 0.0 0.0 0.0 34.61538196595647" Properties=species:S:1:pos:R:3:initial_magmoms:R:1 pbc="T T T"
Si       0.93628404       2.13939828      -0.22655780       0.00000000
Si       1.75448187      -1.60968006      -0.05839618       0.00000000
Si      -0.75339621       0.33270696       2.28260879       0.00000000
Si      -1.40141241      -0.93395457      -1.76926239       0.00000000
Si      -0.32803173       2.37133530      -2.30479727       0.00000000
Si      -1.57112163      -2.96543160       0.97743509       0.00000000
Si       2.87212248      -0.88189173       1.93403170       0.00000000
Si      -3.34761129      -1.20840849       0.39686558       0.00000000
Si       0.53025579      -3.68061636      -0.02997694       0.00000000
Si       3.06452367       1.46857608       1.51598150       0.00000000
