10
Lattice="16.28999089631971 0.0 0.0 0.0 16.28999089631971 0.0 0.0 0.0 34.61538196595647" Properties=species:S:1:pos:R:3:initial_magmoms:R:1 pbc="T T T"
Si      -2.20465602       0.72358551       0.22562319       0.00000000
Si      -0.52471719      -2.15788743       0.74772728       0.00000000
Si       1.05298560       1.48465431       1.54886613       0.00000000
Si       0.75339621      -0.33270696      -2.28260879       0.00000000
Si       1.68968025       1.80669132      -2.50916659       0.00000000
Si      -2.59421508      -1.54111545      -1.88574322       0.00000000
Si       0.89808399      -2.36348352       2.58123586       0.00000000
Si      -0.81772542      -3.29813856      -1.30517371       0.00000000
Si       0.41977701       3.61002690       0.78836576       0.00000000
Si       3.62551869      -1.21459869      -0.34857709       0.00000000
