10
Lattice="16.28999089631971 0.0 0.0 0.0 16.28999089631971 0.0 0.0 0.0 34.61538196595647" Properties=species:S:1:pos:R:3:initial_magmoms:R:1 pbc="T T T"
Si      -0.14437827       1.30971600      -1.91308938       0.00000000
Si      -0.57796920      -1.98389394      -1.22607751       0.00000000
Si       2.34123138       0.42560883       0.38610019       0.00000000
Si      -1.25061588       0.40997043       2.10665871       0.00000000
Si       1.88032212       2.39379921       1.55070075       0.00000000
Si      -2.58781311      -1.16817219      -2.27655110       0.00000000
Si      -2.24736840       1.15707870      -2.90263986       0.00000000
Si       1.20853881      -2.53026054      -2.77210518       0.00000000
Si       3.21160608      -1.32735807       1.95061248       0.00000000
Si       1.07719254       3.26001996      -2.04345099       0.00000000
