10
Lattice="16.28999089631971 0.0 0.0 0.0 16.28999089631971 0.0 0.0 0.0 34.61538196595647" Properties=species:S:1:pos:R:3:initial_magmoms:R:1 pbc="T T T"
Si       1.35347094      -1.35650088       1.35498527       0.00000000
Si       1.35534429       1.35874890      -1.35716604       0.00000000
Si      -1.35936792      -1.35650088      -1.35751219       0.00000000
Si      -1.36075257       1.36026387       1.36661604       0.00000000
Si       0.00369783      -2.69138493       2.71408977       0.00000000
Si       2.71231758      -2.71298547      -0.00045000       0.00000000
Si       2.71285515       0.00135207      -2.71453977       0.00000000
Si      -0.00210141      -2.71409319      -2.71478208       0.00000000
Si       2.71244790       2.71663443      -0.00034615       0.00000000
Si      -2.71599912      -2.71342530      -0.00024231       0.00000000
