10
Lattice="16.28999089631971 0.0 0.0 0.0 16.28999089631971 0.0 0.0 0.0 34.61538196595647" Properties=species:S:1:pos:R:3:initial_magmoms:R:1 pbc="T T T"
Si       0.38688750      -2.09331387      -1.07584667       0.00000000
Si       2.10994596       1.07960346      -0.33518093       0.00000000
Si      -0.88301574      -0.28997829       2.22168569       0.00000000
Si      -1.79040132       1.55611854      -0.51781179       0.00000000
Si       0.95902488       3.19266081       0.45553868       0.00000000
Si      -3.55084533       0.14437827      -1.04119666       0.00000000
Si      -0.87742827      -1.86137685      -3.15408614       0.00000000
Si       2.51512713      -2.76413607       0.66669263       0.00000000
Si      -0.24980715      -2.41535088       2.98218605       0.00000000
Si       0.28748592       1.07069283       3.68695562       0.00000000
