10
Lattice="16.28999089631971 0.0 0.0 0.0 16.28999089631971 0.0 0.0 0.0 34.61538196595647" Properties=species:S:1:pos:R:3:initial_magmoms:R:1 pbc="T T T"
Si       1.36001952       1.35187193       1.38425951       0.00000000
Si      -1.35459495      -1.36477620       1.38391336       0.00000000
Si       1.40040243      -1.40141241      -1.37651951       0.00000000
Si      -1.40103774       1.40729214      -1.42801338       0.00000000
Si      -2.70532917       2.70442412       0.03346963       0.00000000
Si       2.72368800       2.69719136       0.00363462       0.00000000
Si      -2.70223407      -2.72321559       0.02202924       0.00000000
Si       2.72215674      -2.71437012       0.03409963       0.00000000
Si      -0.00032580       2.70779615       2.74512940       0.00000000
Si      -2.71412577      -0.00707033       2.74561402       0.00000000
