10
Lattice="16.28999089631971 0.0 0.0 0.0 16.28999089631971 0.0 0.0 0.0 34.61538196595647" Properties=species:S:1:pos:R:3:initial_magmoms:R:1 pbc="T T T"
Si       1.91207133      -0.41016591      -1.25086214       0.00000000
Si      -1.34081361       1.02934948      -1.64347002       0.00000000
Si      -1.75418865      -1.51009929       0.53325026       0.00000000
Si       1.31960403      -0.05719419       2.08723947       0.00000000
Si       3.00936573      -1.13746554       0.76223114       0.00000000
Si      -2.09971584      -2.68511328      -1.40843145       0.00000000
Si      -3.06105390       2.05810208      -0.45623099       0.00000000
Si      -0.08003277      -1.22311836       3.57797392       0.00000000
Si      -2.40652170      -0.76675401      -2.82586290       0.00000000
Si      -3.79309392      -0.10987605       0.32798093       0.00000000
