10
Lattice="16.28999089631971 0.0 0.0 0.0 16.28999089631971 0.0 0.0 0.0 34.61538196595647" Properties=species:S:1:pos:R:3:initial_magmoms:R:1 pbc="T T T"
Si       1.23413040       1.44623176       1.38706132       0.00000000
Si      -1.39963680      -1.16592417       1.49073445       0.00000000
Si       1.68976170      -1.08027135      -1.32500833       0.00000000
Si      -1.31960403       0.05719419      -2.08723947       0.00000000
Si       0.59246730      -0.35297172      -3.33810161       0.00000000
Si      -3.07379268      -1.45290510      -1.55398921       0.00000000
Si       2.66698251      -2.64585438       0.16054623       0.00000000
Si      -0.07788249      -2.47888188       2.90135359       0.00000000
Si       2.80730457       2.58741305       0.14479622       0.00000000
Si       3.54582801       0.54450532      -1.38326605       0.00000000
