10
Lattice="16.28999089631971 0.0 0.0 0.0 16.28999089631971 0.0 0.0 0.0 34.61538196595647" Properties=species:S:1:pos:R:3:initial_magmoms:R:1 pbc="T T T"
Si       1.37842300       1.35812988       1.38066990       0.00000000
Si      -1.29090105       1.43583318      -1.41774299       0.00000000
Si       1.42164037      -1.30309411      -1.42452761       0.00000000
Si      -1.58332284      -0.97528230       1.52792381       0.00000000
Si       1.91445686      -0.29807442       3.23730156       0.00000000
Si      -2.62164744      -2.72732786       0.11623852       0.00000000
Si      -3.43517004       0.85805946       1.46603148       0.00000000
Si       2.65697135      -2.77504127       0.06867696       0.00000000
Si      -2.65020381       0.06542064      -2.80270520       0.00000000
Si       0.06790661      -2.65322465      -2.80447058       0.00000000
