10
Lattice="16.28999089631971 0.0 0.0 0.0 16.28999089631971 0.0 0.0 0.0 34.61538196595647" Properties=species:S:1:pos:R:3:initial_magmoms:R:1 pbc="T T T"
Si      -0.14102253       0.01312974       2.32646651       0.00000000
Si      -0.03748329       2.02888692      -1.18692750       0.00000000
Si       1.48930578      -1.19223252      -1.37700066       0.00000000
Si      -2.14233048      -0.97612938      -0.42763867       0.00000000
Si      -0.38830473       0.96171273      -3.27077465       0.00000000
Si      -0.01785384      -1.33607322      -3.21570155       0.00000000
Si      -2.17228779       2.70992295      -0.56786566       0.00000000
Si      -1.03483854      -2.15440300       2.65316666       0.00000000
Si      -3.32249211       0.81738333      -1.32012756       0.00000000
Si      -1.90268829      -2.48035938      -2.21573184       0.00000000
