10
Lattice="16.28999089631971 0.0 0.0 0.0 16.28999089631971 0.0 0.0 0.0 34.61538196595647" Properties=species:S:1:pos:R:3:initial_magmoms:R:1 pbc="T T T"
Si      -0.79969239       1.73266956      -1.26377369       0.00000000
Si       0.31016160       0.68075910       2.16979720       0.00000000
Si       2.13480450      -0.68103603      -0.61906184       0.00000000
Si      -1.15020432      -1.89253962      -0.75226190       0.00000000
Si      -0.52284384      -1.45785726      -2.99665529       0.00000000
Si      -3.09537693       1.24139574      -1.09921207       0.00000000
Si       2.17228779      -2.70992295       0.56786566       0.00000000
Si      -0.33044265       0.89261055      -3.41470549       0.00000000
Si       3.51612224       1.02543921       0.27969244       0.00000000
Si      -0.53566407       3.63794796       0.09456928       0.00000000
