10
Lattice="16.28999089631971 0.0 0.0 0.0 16.28999089631971 0.0 0.0 0.0 34.61538196595647" Properties=species:S:1:pos:R:3:initial_magmoms:R:1 pbc="T T T"
Si      -2.18543382      -0.86493384      -0.21565395       0.00000000
Si       1.02052682      -0.52025373      -2.10575871       0.00000000
Si       0.35218980       2.39010138       0.09453466       0.00000000
Si       0.67471551      -0.71672742       2.22538953       0.00000000
Si      -3.15877761       1.25040411      -0.07854235       0.00000000
Si       2.45996497       2.10733956       1.07993129       0.00000000
Si      -1.44971226      -1.37779191       3.01603992       0.00000000
Si       3.20716610      -1.09968903      -1.55353921       0.00000000
Si      -2.26149183      -2.70547578       1.21925828       0.00000000
Si       1.66120111       1.24647822       3.11469381       0.00000000
