10
Lattice="16.28999089631971 0.0 0.0 0.0 16.28999089631971 0.0 0.0 0.0 34.61538196595647" Properties=species:S:1:pos:R:3:initial_magmoms:R:1 pbc="T T T"
Si      -0.69123357       1.27470879       1.79820087       0.00000000
Si       1.57446108       1.31214321      -1.26391215       0.00000000
Si      -2.35087506      -0.19943847      -0.50843101       0.00000000
Si       0.92053161      -2.34921348       0.31908477       0.00000000
Si      -1.88996580      -2.16762885      -1.67303158       0.00000000
Si      -1.84054194       3.00288231       0.40586558       0.00000000
Si       3.16812874      -0.41503662      -1.58195846       0.00000000
Si       1.93205916      -2.49968421      -1.88259322       0.00000000
Si      -1.86551451      -0.34622766       3.22145952       0.00000000
Si       0.29727621       2.24441991      -3.10084765       0.00000000
