10
Lattice="16.28999089631971 0.0 0.0 0.0 16.28999089631971 0.0 0.0 0.0 34.61538196595647" Properties=species:S:1:pos:R:3:initial_magmoms:R:1 pbc="T T T"
Si       1.35397593       1.35581670       1.37981143       0.00000000
Si      -1.36456443      -1.36032903       1.38026143       0.00000000
Si      -1.44948420       1.34713413      -1.37945143       0.00000000
Si       1.37384973      -1.35847197      -1.47106109       0.00000000
Si      -0.30944484      -2.35071216      -2.84193280       0.00000000
Si       0.02914281       2.55498876      -2.71288658       0.00000000
Si       2.67974656      -2.71111212       0.02568809       0.00000000
Si       2.73237057       2.68688889       0.01546270       0.00000000
Si      -2.74497903      -2.68350057       0.01841539       0.00000000
Si      -2.71572219       2.72196126       0.02792078       0.00000000
