10
Lattice="16.28999089631971 0.0 0.0 0.0 16.28999089631971 0.0 0.0 0.0 34.61538196595647" Properties=species:S:1:pos:R:3:initial_magmoms:R:1 pbc="T T T"
Si       0.13424589       0.91771344      -2.12344718       0.00000000
Si       2.10777517      -0.28276182       0.98539663       0.00000000
Si      -1.04531301       1.49511249       1.54931613       0.00000000
Si      -0.35218980      -2.39010138      -0.09453466       0.00000000
Si      -2.88222228       0.07175745       1.74288546       0.00000000
Si       1.30901131      -1.14362316       3.02015915       0.00000000
Si       0.04623102       0.87705360       3.56569787       0.00000000
Si       1.00607433      -0.84657501      -3.43270550       0.00000000
Si      -3.51096741      -1.13969727      -0.17307701       0.00000000
Si       0.66833702      -2.91035511      -2.20029337       0.00000000
