10
Lattice="16.28999089631971 0.0 0.0 0.0 16.28999089631971 0.0 0.0 0.0 34.61538196595647" Properties=species:S:1:pos:R:3:initial_magmoms:R:1 pbc="T T T"
Si      -1.39691637      -1.76984334       0.54744257       0.00000000
Si       2.12077881      -0.55428354       0.80941193       0.00000000
Si       0.23006367      -0.60274629      -2.31604727       0.00000000
Si      -1.21503852       2.04217956       0.50150793       0.00000000
Si      -3.41933616      -0.68035185       0.05843080       0.00000000
Si      -3.10238163       1.45197657      -0.79698500       0.00000000
Si       0.27564309       3.57225039      -0.47803869       0.00000000
Si       2.99260725      -2.31857199      -0.49984639       0.00000000
Si       1.98653292      -1.47199698       2.93285911       0.00000000
Si       1.59288507       1.04516640      -3.33145545       0.00000000
