10
Lattice="16.28999089631971 0.0 0.0 0.0 16.28999089631971 0.0 0.0 0.0 34.61538196595647" Properties=species:S:1:pos:R:3:initial_magmoms:R:1 pbc="T T T"
Si      -1.59321087      -1.04881536       1.39617760       0.00000000
Si      -1.09154403       0.61805889      -2.01638174       0.00000000
Si       1.14276372       1.91839185       0.86143888       0.00000000
Si       1.26278029      -2.02067676      -0.54553872       0.00000000
Si       2.06154415      -1.15981542      -2.58030124       0.00000000
Si      -2.92845330      -0.80529615      -1.82281242       0.00000000
Si      -0.04623102      -0.87705360      -3.56569787       0.00000000
Si      -2.74883976      -2.49678459      -0.16902700       0.00000000
Si       2.38404869       1.05699294       2.68601668       0.00000000
Si      -0.31602600      -1.98109206       3.23311310       0.00000000
