10
Lattice="16.28999089631971 0.0 0.0 0.0 16.28999089631971 0.0 0.0 0.0 34.61538196595647" Properties=species:S:1:pos:R:3:initial_magmoms:R:1 pbc="T T T"
Si       0.75984705       1.84990869      -1.49670072       0.00000000
Si      -1.86725754      -0.79669503      -1.49178533       0.00000000
Si      -0.33964650       0.02858895       2.50483967       0.00000000
Si       1.75842405      -1.82827557      -0.05046926       0.00000000
Si       2.09893392       0.57016629      -3.04016685       0.00000000
Si      -0.63192168      -2.14953066      -3.04328224       0.00000000
Si       3.39623694      -0.86806152      -1.59684308       0.00000000
Si       0.77988375      -3.42446751      -1.60411231       0.00000000
Si       1.79817165       3.60195425      -0.08501543       0.00000000
Si      -3.48109155      -2.02952223      -0.16965008       0.00000000
