10
Lattice="16.28999089631971 0.0 0.0 0.0 16.28999089631971 0.0 0.0 0.0 34.61538196595647" Properties=species:S:1:pos:R:3:initial_magmoms:R:1 pbc="T T T"
Si       1.57108158       1.04083326       1.43858146       0.00000000
Si       1.40314145      -1.28746386      -1.46301994       0.00000000
Si      -1.29730302       1.43822781      -1.44332377       0.00000000
Si      -1.63781289      -0.96021405       1.54637382       0.00000000
Si       3.40375382      -0.55827459       1.15753902       0.00000000
Si      -2.61635319      -2.55640599      -0.00726923       0.00000000
Si       2.64222890       2.67025680       0.05258079       0.00000000
Si       2.77952102      -2.56986153      -0.00557308       0.00000000
Si      -2.63638989       2.71797021       0.10014236       0.00000000
Si      -3.39623694       0.86806152       1.59684308       0.00000000
