10
Lattice="16.28999089631971 0.0 0.0 0.0 16.28999089631971 0.0 0.0 0.0 34.61538196595647" Properties=species:S:1:pos:R:3:initial_magmoms:R:1 pbc="T T T"
Si       2.12770206      -0.14216283       1.14137363       0.00000000
Si      -1.42939863      -1.82817783       0.71217727       0.00000000
Si      -1.15939188       1.80647955       1.22586982       0.00000000
Si       0.33964650      -0.02858895      -2.50483967       0.00000000
Si       0.72674577       2.42212330       2.69017053       0.00000000
Si       2.91128364      -2.22462756       0.55370796       0.00000000
Si      -3.49826121      -1.15989687      -0.51061178       0.00000000
Si       1.59404166       0.30245643       3.40712472       0.00000000
Si       2.09807055      -1.85686452      -2.55530892       0.00000000
Si      -0.27847755      -3.94123518      -0.07854235       0.00000000
