10
Lattice="16.28999089631971 0.0 0.0 0.0 16.28999089631971 0.0 0.0 0.0 34.61538196595647" Properties=species:S:1:pos:R:3:initial_magmoms:R:1 pbc="T T T"
Si       0.78358158      -2.08246473      -0.58766567       0.00000000
Si      -0.53366040       0.44461926       2.26575109       0.00000000
Si      -2.12770206       0.14216283      -1.14137363       0.00000000
Si       2.16894901       0.99033426      -1.05743128       0.00000000
Si      -1.40095629       2.56428613       1.54879690       0.00000000
Si       0.48387816       3.70857230       0.54882719       0.00000000
Si      -0.57923982      -3.73037742       0.42774251       0.00000000
Si      -3.28709394       1.94864238       0.08449619       0.00000000
Si       1.31010696       3.27266819      -1.61428924       0.00000000
Si       1.32991560       0.21357819       3.72001333       0.00000000
