10
Lattice="16.28999089631971 0.0 0.0 0.0 16.28999089631971 0.0 0.0 0.0 34.61538196595647" Properties=species:S:1:pos:R:3:initial_magmoms:R:1 pbc="T T T"
Si      -1.34798121      -1.59379731       1.10817746       0.00000000
Si       2.01731192       0.30765294       1.19374673       0.00000000
Si       0.63749286      -0.61682085      -2.20766645       0.00000000
Si      -1.22552928       2.05984348       0.49001562       0.00000000
Si      -0.94912056       1.88086525       2.82454752       0.00000000
Si       3.28614002       1.16022267      -0.69203110       0.00000000
Si      -3.27085281      -1.42610805      -0.35200402       0.00000000
Si      -1.49534055      -0.40767354       3.25668619       0.00000000
Si       1.42311299       2.11740419       2.66306667       0.00000000
Si       2.18478778       0.99158859      -2.82288598       0.00000000
