10
Lattice="16.28999089631971 0.0 0.0 0.0 16.28999089631971 0.0 0.0 0.0 34.61538196595647" Properties=species:S:1:pos:R:3:initial_magmoms:R:1 pbc="T T T"
Si       1.64333913      -1.52648703      -0.75890806       0.00000000
Si      -1.52580285       0.70042113      -1.67832773       0.00000000
Si      -1.57275063      -0.91307079       1.55582383       0.00000000
Si       0.70975530       1.55310489       1.72256622       0.00000000
Si      -0.10375101      -1.46631177       3.28718235       0.00000000
Si      -0.97958286       2.98895992      -2.11046640       0.00000000
Si       0.50057541      -3.44487888      -1.62034694       0.00000000
Si      -3.74270895       0.57642165      -0.82941963       0.00000000
Si       1.60225412       0.16224840       3.54129402       0.00000000
Si       2.88462410      -2.38788594       1.06566974       0.00000000
