10
Lattice="16.28999089631971 0.0 0.0 0.0 16.28999089631971 0.0 0.0 0.0 34.61538196595647" Properties=species:S:1:pos:R:3:initial_magmoms:R:1 pbc="T T T"
Si      -2.18663928       0.57943530      -0.55221950       0.00000000
Si       1.13503833       0.30498138      -2.02295867       0.00000000
Si       0.75030111       1.90573452       1.29503139       0.00000000
Si       0.77405193      -2.36498220       0.08726543       0.00000000
Si       3.33971064      -0.09664857      -1.09557745       0.00000000
Si       2.12713191       0.80573598       2.83396291       0.00000000
Si      -1.84890197       2.64321540      -1.78463163       0.00000000
Si      -3.20716610       1.09968903       1.55353921       0.00000000
Si       3.14774928      -2.21822559      -0.14524622       0.00000000
Si       0.02445129      -3.27153699      -2.06671254       0.00000000
