10
Lattice="16.28999089631971 0.0 0.0 0.0 16.28999089631971 0.0 0.0 0.0 34.61538196595647" Properties=species:S:1:pos:R:3:initial_magmoms:R:1 pbc="T T T"
Si      -2.28459594      -0.34192710       0.40011942       0.00000000
Si       0.88352073       1.85341104      -1.16297364       0.00000000
Si       0.42409386       1.10084562       2.04822791       0.00000000
Si       0.60404949      -2.34323505      -0.42175405       0.00000000
Si       3.04157106       1.05046065      -1.51310842       0.00000000
Si      -2.10035929      -1.18100871       2.68708976       0.00000000
Si       0.13569570      -0.59186457       3.60055558       0.00000000
Si      -0.95715153      -2.86045884      -2.14445873       0.00000000
Si      -2.85642544      -2.28576393      -0.81882732       0.00000000
Si      -1.38691431       2.61456129       2.42110501       0.00000000
