10
Lattice="16.28999089631971 0.0 0.0 0.0 16.28999089631971 0.0 0.0 0.0 34.61538196595647" Properties=species:S:1:pos:R:3:initial_magmoms:R:1 pbc="T T T"
Si      -1.35660773      -1.35510965       1.35681989       0.00000000
Si      -1.35419681       1.35799704      -1.35955450       0.00000000
Si       1.35868997       1.35937680       1.35647373       0.00000000
Si       1.36076205      -1.35592415      -1.35855066       0.00000000
Si      -2.71410230      -2.71192004      -0.00051923       0.00000000
Si       0.00135508      -2.71314179       2.71350131       0.00000000
Si       2.71510125      -2.71245761      -0.00121154       0.00000000
Si      -2.71377650       0.00211892       2.71388208       0.00000000
Si      -2.71276652       2.71700658      -0.00155769       0.00000000
Si       2.71655106       0.00193233       2.71367439       0.00000000
