10
Lattice="16.28999089631971 0.0 0.0 0.0 16.28999089631971 0.0 0.0 0.0 34.61538196595647" Properties=species:S:1:pos:R:3:initial_magmoms:R:1 pbc="T T T"
Si       0.35888499      -2.29415328       0.44979252       0.00000000
Si      -1.28412441       0.36574308       1.98796250       0.00000000
Si       1.60782300       1.76124222      -0.23431165       0.00000000
Si      -0.79245474      -0.18572229      -2.26869340       0.00000000
Si       0.76198104       0.10966428       3.30244775       0.00000000
Si      -0.17345592       3.35800431      -0.61854261       0.00000000
Si       1.58307849      -2.14723377       2.45977042       0.00000000
Si       1.33185411       0.21380625      -3.41498242       0.00000000
Si      -2.69513882      -1.52765991       1.98931250       0.00000000
Si      -1.82331038      -3.29194836       0.68005417       0.00000000
