10
Lattice="16.28999089631971 0.0 0.0 0.0 16.28999089631971 0.0 0.0 0.0 34.61538196595647" Properties=species:S:1:pos:R:3:initial_magmoms:R:1 pbc="T T T"
Si       0.79876386       0.86086134      -2.03476252       0.00000000
Si      -0.98648560      -1.96320564      -0.88930428       0.00000000
Si       1.40266185      -0.77928102       1.74980854       0.00000000
Si      -1.26278029       2.02067676       0.54553872       0.00000000
Si       2.35548024       1.34309421       2.14975488       0.00000000
Si      -1.30901131       1.14362316      -3.02015915       0.00000000
Si      -2.85599116       0.97186140       1.94171632       0.00000000
Si      -1.66120111      -1.24647822      -3.11469381       0.00000000
Si       0.50498023      -3.73576941      -0.27117705       0.00000000
Si       3.22236888       2.04320583       0.05715003       0.00000000
