10
Lattice="16.28999089631971 0.0 0.0 0.0 16.28999089631971 0.0 0.0 0.0 34.61538196595647" Properties=species:S:1:pos:R:3:initial_magmoms:R:1 pbc="T T T"
Si       1.32734178       1.72949301       0.83734656       0.00000000
Si       1.32568020      -1.86908202      -0.51743102       0.00000000
Si      -0.86688864      -0.70011162       2.09260486       0.00000000
Si      -1.42006446       0.94216473      -1.68033543       0.00000000
Si      -2.42360502      -1.18234449      -2.09191255       0.00000000
Si       0.17919000       3.56742855      -0.01633847       0.00000000
Si       3.32327403      -0.78700248      -1.04919281       0.00000000
Si      -2.08997442       2.88688122      -0.47014638       0.00000000
Si       1.03399146      -0.55693881       3.47026321       0.00000000
Si       3.52660581       1.18508121       0.22420395       0.00000000
