10
Lattice="16.28999089631971 0.0 0.0 0.0 16.28999089631971 0.0 0.0 0.0 34.61538196595647" Properties=species:S:1:pos:R:3:initial_magmoms:R:1 pbc="T T T"
Si      -1.24128497       0.86139891      -1.82457780       0.00000000
Si       1.23421185      -1.73457549      -1.08180052       0.00000000
Si       1.41889158       1.67006709       1.16203902       0.00000000
Si      -1.75751833      -0.98321553       1.47901225       0.00000000
Si       3.13509195      -1.59140268       0.29585784       0.00000000
Si       3.49793541       0.72194022       0.03233078       0.00000000
Si      -2.38404869      -1.05699294      -2.68601668       0.00000000
Si      -1.28236998       2.55013434       2.47562427       0.00000000
Si      -2.98837511       0.92157417       2.22151261       0.00000000
Si      -2.88462410       2.38788594      -1.06566974       0.00000000
