10
Lattice="16.28999089631971 0.0 0.0 0.0 16.28999089631971 0.0 0.0 0.0 34.61538196595647" Properties=species:S:1:pos:R:3:initial_magmoms:R:1 pbc="T T T"
Si      -1.34125344      -1.37472939      -1.35198411       0.00000000
Si       1.35865116      -1.35654975       1.36052373       0.00000000
Si      -1.35718506       1.35957969       1.36000450       0.00000000
Si       1.36972836       1.35788553      -1.36295720       0.00000000
Si       0.02298519       2.59077789      -2.80923020       0.00000000
Si      -2.71370060      -2.70848943       0.00058846       0.00000000
Si      -2.71152426       2.71611315       0.00266539       0.00000000
Si       2.72003904      -2.71023246       0.00027692       0.00000000
Si      -2.71305552       0.00125433       2.71768977       0.00000000
Si       0.00135207      -2.71318095       2.71800131       0.00000000
