10
Lattice="10.86 0.0 0.0 0.0 10.86 0.0 0.0 0.0 10.86" Properties=species:S:1:pos:R:3:initial_magmoms:R:1 pbc="T T T"
Si      -1.39663944      -1.15610130       1.20793608       0.00000000
Si       1.31836056      -1.15610130      -1.50706392       0.00000000
Si       1.31836056       1.55889870       1.20793608       0.00000000
Si      -0.03913944      -2.51360130       2.56543608       0.00000000
Si       2.67586056      -2.51360130      -0.14956392       0.00000000
Si      -0.18523902       2.75896128       2.44014426       0.00000000
Si       2.67586056       0.20139870       2.56543608       0.00000000
Si      -2.75413944      -2.51360130      -0.14956392       0.00000000
Si      -0.03913944      -2.51360130      -2.86456392       0.00000000
Si       2.67586056       0.20139870      -2.86456392       0.00000000
