10
Lattice="10.86 0.0 0.0 0.0 10.86 0.0 0.0 0.0 10.86" Properties=species:S:1:pos:R:3:initial_magmoms:R:1 pbc="T T T"
Si      -1.16405082       1.04413470       1.65681246       0.00000000
Si       0.95960046      -1.34703096       1.56920484       0.00000000
Si      -1.18098156      -1.85001186      -1.06900410       0.00000000
Si       0.37253058       1.76858358      -2.17637658       0.00000000
Si      -2.81928858       2.25157122       0.39015636       0.00000000
Si      -2.81928858      -0.46342878      -2.32484364       0.00000000
Si      -0.10428858       2.25157122       3.10515636       0.00000000
Si      -1.22508402       3.53893734      -1.16261730       0.00000000
Si      -0.10428858      -3.17842878      -2.32484364       0.00000000
Si      -1.47161688       1.33598634      -3.49664850       0.00000000
