10
Lattice="16.28999089631971 0.0 0.0 0.0 16.28999089631971 0.0 0.0 0.0 34.642051614445585" Properties=species:S:1:pos:R:3:initial_magmoms:R:1 pbc="T T T"
Si       1.35637056       1.34282938       1.38148422       0.00000000
Si      -1.35914800      -1.37660923       1.37964819       0.00000000
Si       1.38611610      -1.28633005      -1.48567025       0.00000000
Si      -1.35298224       1.46053929      -1.39070940       0.00000000
Si       2.70552465       2.69953063      -0.01614667       0.00000000
Si      -2.71241556       2.70280492       0.04631645       0.00000000
Si       2.70648576      -2.71238923       0.01111664       0.00000000
Si      -2.71916749      -2.71831879      -0.00295150       0.00000000
Si      -0.00140094       2.69959579       2.74267511       0.00000000
Si      -2.71486041      -0.01542369       2.74260583       0.00000000
