10
Lattice="16.28999089631971 0.0 0.0 0.0 16.28999089631971 0.0 0.0 0.0 34.642051614445585" Properties=species:S:1:pos:R:3:initial_magmoms:R:1 pbc="T T T"
Si       1.33771851       0.38258694      -1.90898596       0.00000000
Si      -2.03779478       0.91330278      -0.78090156       0.00000000
Si      -0.57597530      -2.27998098       0.39630529       0.00000000
Si       0.97451667       1.09944535       1.88352404       0.00000000
Si       1.34721558      -1.71572796      -2.95829429       0.00000000
Si       1.48217823      -3.28592106       0.78931959       0.00000000
Si      -3.63911174       0.67518203       0.97475859       0.00000000
Si      -1.88243167       3.27335237      -0.86158295       0.00000000
Si       1.57879422       3.33984815       1.20194129       0.00000000
Si      -1.97328263      -2.47708998       2.26943671       0.00000000
