10
Lattice="16.28999089631971 0.0 0.0 0.0 16.28999089631971 0.0 0.0 0.0 34.642051614445585" Properties=species:S:1:pos:R:3:initial_magmoms:R:1 pbc="T T T"
Si      -1.36855548       1.27580120      -1.28951645       0.00000000
Si      -1.63657485      -1.17907804       1.21157179       0.00000000
Si       1.36909305      -1.45323874      -1.24898523       0.00000000
Si       0.90489321       1.72248766       1.46331572       0.00000000
Si       0.82932390       0.15200297       3.20300588       0.00000000
Si      -0.09725130      -2.05908013       2.74167742       0.00000000
Si       0.00920385       2.61646657      -2.61395211       0.00000000
Si      -2.62531269       2.64212332       0.12633963       0.00000000
Si      -2.70591561      -0.09548353      -2.61066111       0.00000000
Si       2.72526813      -0.10188550      -2.61066111       0.00000000
