10
Lattice="16.28999089631971 0.0 0.0 0.0 16.28999089631971 0.0 0.0 0.0 34.642051614445585" Properties=species:S:1:pos:R:3:initial_magmoms:R:1 pbc="T T T"
Si      -1.47672108       1.07636827       1.39860433       0.00000000
Si       1.71007533       0.36753009       1.52456290       0.00000000
Si       1.41867981      -1.40668127      -1.32460887       0.00000000
Si      -1.45850886       1.23346414      -1.44935497       0.00000000
Si       1.38632787      -1.96880030       2.04661891       0.00000000
Si       0.42994197       2.41452009      -2.40984103       0.00000000
Si      -2.64354120      -0.60335621      -2.36071857       0.00000000
Si       2.95800336      -2.28668336       0.20549677       0.00000000
Si       3.88457856      -0.07560026       0.66682522       0.00000000
Si      -0.74031534      -2.92336172       2.54002593       0.00000000
