10
Lattice="16.28999089631971 0.0 0.0 0.0 16.28999089631971 0.0 0.0 0.0 34.642051614445585" Properties=species:S:1:pos:R:3:initial_magmoms:R:1 pbc="T T T"
Si       2.15133885       0.46913571      -0.68321092       0.00000000
Si      -1.63966995       0.49720338      -1.73452849       0.00000000
Si       0.59552982      -0.49852287       2.38365162       0.00000000
Si      -0.24099426      -0.21261708      -3.49749813       0.00000000
Si       2.72899854       2.60073108       0.26612039       0.00000000
Si       2.10452139       0.48202110      -3.10985335       0.00000000
Si       3.51570780      -1.47718046       0.05972293       0.00000000
Si      -1.41695307       2.78153379      -2.42844382       0.00000000
Si       2.53366515      -2.15186827       2.31987557       0.00000000
Si      -1.01476926      -1.73760543       3.71183351       0.00000000
