10
Lattice="16.28999089631971 0.0 0.0 0.0 16.28999089631971 0.0 0.0 0.0 34.642051614445585" Properties=species:S:1:pos:R:3:initial_magmoms:R:1 pbc="T T T"
Si      -1.18503234      -1.83682035      -0.91136360       0.00000000
Si       1.45850886      -1.23346414       1.44935497       0.00000000
Si       1.88845083       1.18105595      -0.96048606       0.00000000
Si      -1.30611591       2.08186037       0.14612026       0.00000000
Si      -0.01821222      -0.15709587       2.84795930       0.00000000
Si      -2.26687242      -0.22222166      -2.33830515       0.00000000
Si      -0.82859085       2.04828668       2.50410210       0.00000000
Si       0.47744361       2.51810657      -2.34114580       0.00000000
Si      -3.32949681       1.38440402      -0.99450457       0.00000000
Si       0.42526674      -2.91577221      -2.33844372       0.00000000
