10
Lattice="16.28999089631971 0.0 0.0 0.0 16.28999089631971 0.0 0.0 0.0 34.642051614445585" Properties=species:S:1:pos:R:3:initial_magmoms:R:1 pbc="T T T"
Si       1.35855342       1.33569855      -1.38665282       0.00000000
Si      -1.35371529      -1.38232053      -1.39212626       0.00000000
Si       1.49809356      -1.33807689       1.34199919       0.00000000
Si      -1.31914791       1.54069191       1.63947065       0.00000000
Si      -2.70195714       2.68534134      -0.03429565       0.00000000
Si       2.72337849       2.67937920       0.01271364       0.00000000
Si      -2.68537392      -2.73038319      -0.03498849       0.00000000
Si       0.00376299       2.69143380      -2.75033794       0.00000000
Si      -2.71075374      -0.02274084      -2.75089221       0.00000000
Si       2.72101644      -0.02309922      -2.74947189       0.00000000
