10
Lattice="16.28999089631971 0.0 0.0 0.0 16.28999089631971 0.0 0.0 0.0 34.642051614445585" Properties=species:S:1:pos:R:3:initial_magmoms:R:1 pbc="T T T"
Si       0.02638980      -1.39253436      -1.93354719       0.00000000
Si      -1.25529111       1.93789098      -0.68127097       0.00000000
Si       2.37353445       0.50391486       0.34337221       0.00000000
Si      -1.11527856      -0.52813809       2.13190769       0.00000000
Si       0.99430902       0.40479021      -3.27488818       0.00000000
Si       2.88719073       0.95423562      -1.88387046       0.00000000
Si      -1.46012157       3.08833965       1.37189529       0.00000000
Si      -0.38791377      -2.78246232       2.42016436       0.00000000
Si      -0.28693206       0.92163933       3.84426526       0.00000000
Si      -3.45051522      -0.09218511       2.00601840       0.00000000
