10
Lattice="16.28999089631971 0.0 0.0 0.0 16.28999089631971 0.0 0.0 0.0 34.642051614445585" Properties=species:S:1:pos:R:3:initial_magmoms:R:1 pbc="T T T"
Si      -1.72102221       1.45060821       0.66097071       0.00000000
Si       1.46284200      -0.32882994       1.82220758       0.00000000
Si       1.12464531       1.25468838      -1.66836214       0.00000000
Si      -0.95441481      -1.90628838      -1.07227602       0.00000000
Si      -2.66735718       1.92327885      -1.47831574       0.00000000
Si       0.88912449      -3.37137840      -1.09084417       0.00000000
Si      -3.09574345       0.16148277       2.03671128       0.00000000
Si      -0.73049247       2.39798574      -2.77219709       0.00000000
Si       2.78650224       2.51726112      -0.49583196       0.00000000
Si       3.33777213       1.09419930       1.42171059       0.00000000
