10
Lattice="16.28999089631971 0.0 0.0 0.0 16.28999089631971 0.0 0.0 0.0 34.642051614445585" Properties=species:S:1:pos:R:3:initial_magmoms:R:1 pbc="T T T"
Si       0.97272477      -0.86840361      -1.94248485       0.00000000
Si      -2.19704859      -0.93064770       0.10524261       0.00000000
Si       1.30800555      -0.73581930       1.88369725       0.00000000
Si       0.83237013       2.25935784       0.16960758       0.00000000
Si       3.07050210       1.77762996      -0.32026595       0.00000000
Si       0.36457020       2.66031990       2.43474867       0.00000000
Si       1.42136766      -3.10850667      -1.25324620       0.00000000
Si       2.84765490       0.55462563      -2.34298183       0.00000000
Si       3.51054387       0.23045463       1.40179140       0.00000000
Si      -0.49011723      -0.53957367      -3.76469242       0.00000000
