10
Lattice="16.28999089631971 0.0 0.0 0.0 16.28999089631971 0.0 0.0 0.0 34.642051614445585" Properties=species:S:1:pos:R:3:initial_magmoms:R:1 pbc="T T T"
Si       0.52305561      -1.38984651      -1.84604132       0.00000000
Si      -1.85719032      -1.24690176       0.88957374       0.00000000
Si      -0.42037974       2.00629269      -1.29498990       0.00000000
Si       2.05053633       1.21239954       0.95955072       0.00000000
Si       1.20045897       3.27502305      -0.04849890       0.00000000
Si      -1.03136877      -1.15360893       3.15065940       0.00000000
Si       2.72559393      -0.42357258      -2.32794717       0.00000000
Si       0.30033873      -3.67417692      -1.15212600       0.00000000
Si      -0.78494994      -0.65402721      -3.72973857       0.00000000
Si       3.86573103       0.37401840      -0.41088960       0.00000000
