10
Lattice="16.28999089631971 0.0 0.0 0.0 16.28999089631971 0.0 0.0 0.0 34.642051614445585" Properties=species:S:1:pos:R:3:initial_magmoms:R:1 pbc="T T T"
Si      -1.35685926      -1.35698958       1.35630636       0.00000000
Si       1.35765747       1.35718506       1.35686064       0.00000000
Si      -1.35702216       1.35707103      -1.35762276       0.00000000
Si       1.35821133      -1.35786924      -1.35748419       0.00000000
Si      -2.71036278      -0.00166158       2.71448340       0.00000000
Si      -2.71399545       2.71427238      -0.00024249       0.00000000
Si       0.00114030       2.71467963      -2.71424090       0.00000000
Si      -2.71381626      -2.71551042      -0.00027714       0.00000000
Si      -2.71518462      -0.00190593      -2.71441411       0.00000000
Si       2.71598283       0.00000000      -2.71431019       0.00000000
