10
Lattice="16.28999089631971 0.0 0.0 0.0 16.28999089631971 0.0 0.0 0.0 34.642051614445585" Properties=species:S:1:pos:R:3:initial_magmoms:R:1 pbc="T T T"
Si      -2.23813197       0.48172788       0.48987353       0.00000000
Si       0.44004177      -1.54717533       1.72205735       0.00000000
Si       1.69679898       1.59137010      -0.45422683       0.00000000
Si      -0.22284720      -1.22300433      -2.02271588       0.00000000
Si       2.20069755      -2.66523948       0.66398457       0.00000000
Si      -3.07050210      -1.77762996       0.32026595       0.00000000
Si       1.40559894      -2.86796853      -1.59173388       0.00000000
Si       0.59849460       3.11414301      -1.98564887       0.00000000
Si      -2.09777733      -2.64603357      -1.62221890       0.00000000
Si      -2.91068091       2.15133885      -1.00507041       0.00000000
