10
Lattice="16.28999089631971 0.0 0.0 0.0 16.28999089631971 0.0 0.0 0.0 34.642051614445585" Properties=species:S:1:pos:R:3:initial_magmoms:R:1 pbc="T T T"
Si      -0.67254894       1.66961097      -1.49494393       0.00000000
Si       2.23813197      -0.48172788      -0.48987353       0.00000000
Si      -0.46779993       0.40096206       2.26514109       0.00000000
Si      -0.83237013      -2.25935784      -0.16960758       0.00000000
Si       0.47563542      -2.99517714       1.71408967       0.00000000
Si      -2.72893338       0.73249614      -2.08503697       0.00000000
Si      -2.62057230       1.30334661       2.05597227       0.00000000
Si       2.67817374      -2.02890321       1.23218382       0.00000000
Si       2.01528477      -1.70473221      -2.51258941       0.00000000
Si       0.14035464      -3.12776145      -2.11209243       0.00000000
