10
Lattice="16.28999089631971 0.0 0.0 0.0 16.28999089631971 0.0 0.0 0.0 34.642051614445585" Properties=species:S:1:pos:R:3:initial_magmoms:R:1 pbc="T T T"
Si      -1.78924703      -0.02177647       1.51742663       0.00000000
Si       1.39221345       1.56064716       1.08938921       0.00000000
Si       0.26315029      -2.32726175      -0.27765620       0.00000000
Si      -1.00074587       0.95478948      -1.92464418       0.00000000
Si       0.91555827       1.31041647      -3.15644694       0.00000000
Si      -0.22005835       3.20074065       1.67227669       0.00000000
Si      -1.25982203      -2.72954330      -2.03296994       0.00000000
Si      -3.60668975       0.81544482       0.10184769       0.00000000
Si      -2.21925416      -0.77702160      -2.89614642       0.00000000
Si      -1.43862107       1.73879460       3.03329438       0.00000000
