10
Lattice="16.28999089631971 0.0 0.0 0.0 16.28999089631971 0.0 0.0 0.0 34.642051614445585" Properties=species:S:1:pos:R:3:initial_magmoms:R:1 pbc="T T T"
Si       1.36394541      -1.36883241       1.25955106       0.00000000
Si      -1.32672276      -1.36225125      -1.35835024       0.00000000
Si       1.38258117       1.35922131      -1.35904309       0.00000000
Si      -1.61029908       1.07895186       1.42708011       0.00000000
Si       2.45192193       0.27562680       2.46318981       0.00000000
Si      -0.42526674       2.91577221       2.33844372       0.00000000
Si      -2.69213916       2.69355054       0.00013857       0.00000000
Si      -2.68791679      -0.00307881      -2.71625014       0.00000000
Si      -2.69608297      -2.72531700       0.01264436       0.00000000
Si       0.02801880       2.71170900      -2.71843259       0.00000000
