10
Lattice="16.28999089631971 0.0 0.0 0.0 16.28999089631971 0.0 0.0 0.0 34.642051614445585" Properties=species:S:1:pos:R:3:initial_magmoms:R:1 pbc="T T T"
Si       1.33736013       1.37128473       1.32114466       0.00000000
Si      -1.35456237       1.35248769      -1.35938951       0.00000000
Si       1.35982404      -1.36358703      -1.35907773       0.00000000
Si      -1.38258117      -1.35922131       1.35904309       0.00000000
Si       2.70591561       0.09548353       2.61066111       0.00000000
Si      -0.01863576      -2.72805372       2.61859414       0.00000000
Si      -2.70894555       2.70338156       0.00436490       0.00000000
Si       0.00228060       2.70893645      -2.71635407       0.00000000
Si       2.71511946       2.71195010      -0.00329100       0.00000000
Si      -2.71324611      -0.00589223      -2.71562659       0.00000000
