10
Lattice="16.28999089631971 0.0 0.0 0.0 16.28999089631971 0.0 0.0 0.0 34.642051614445585" Properties=species:S:1:pos:R:3:initial_magmoms:R:1 pbc="T T T"
Si      -1.08797652      -1.64445921      -1.20363876       0.00000000
Si       1.53932355      -0.88000209       1.53010563       0.00000000
Si       1.63657485       1.17907804      -1.21157179       0.00000000
Si      -1.41867981       1.40668127       1.32460887       0.00000000
Si       0.29139552       1.77421136       2.84917177       0.00000000
Si      -0.03235194      -0.56211903       3.37122778       0.00000000
Si       2.46589875       1.33108101       1.99143409       0.00000000
Si      -2.45192193      -0.27562680      -2.46318981       0.00000000
Si       0.26801937       2.45487924      -2.50108824       0.00000000
Si      -2.06094564      -3.22853139       0.18083161       0.00000000
