10
Lattice="16.28999089631971 0.0 0.0 0.0 16.28999089631971 0.0 0.0 0.0 34.642051614445585" Properties=species:S:1:pos:R:3:initial_magmoms:R:1 pbc="T T T"
Si      -2.28117015       0.30590763       0.60128243       0.00000000
Si       0.53116803      -2.29336128      -0.52649019       0.00000000
Si       1.08769959       0.11502630       2.15629571       0.00000000
Si       0.30677328       1.44031554      -1.96032551       0.00000000
Si       3.09031074       0.38779583       0.99159464       0.00000000
Si      -0.51039828      -0.18932859      -3.47744037       0.00000000
Si       0.03458367       3.33508526       1.18666414       0.00000000
Si      -2.31093198       2.64044708       0.79901937       0.00000000
Si      -1.55256732      -3.05886096      -1.13813060       0.00000000
Si      -2.35326969      -1.32097860      -2.46592654       0.00000000
