10
Lattice="16.28999089631971 0.0 0.0 0.0 16.28999089631971 0.0 0.0 0.0 34.642051614445585" Properties=species:S:1:pos:R:3:initial_magmoms:R:1 pbc="T T T"
Si      -1.36436895       1.94631617      -0.74293385       0.00000000
Si       2.20788144       1.13624705       0.51360334       0.00000000
Si      -0.98204265      -0.67468782       2.26015264       0.00000000
Si      -0.35807049      -1.26085740      -2.19994472       0.00000000
Si      -0.50772672      -3.41500695      -1.25296907       0.00000000
Si      -3.51570780       1.47718046      -0.05972293       0.00000000
Si      -2.92017798       0.97865759       2.32392869       0.00000000
Si       0.94086153       1.29272879      -3.51405704       0.00000000
Si       1.64454066      -0.98808787      -3.36464579       0.00000000
Si       1.51816284       3.58935815       0.13437659       0.00000000
