10
Lattice="16.28999089631971 0.0 0.0 0.0 16.28999089631971 0.0 0.0 0.0 34.642051614445585" Properties=species:S:1:pos:R:3:initial_magmoms:R:1 pbc="T T T"
Si      -0.51365628      -0.45032076       2.22724267       0.00000000
Si       0.72972684       1.94730660      -1.15562485       0.00000000
Si       1.87343145      -1.48556655      -0.06817560       0.00000000
Si      -1.89288171      -0.54944541      -1.39101772       0.00000000
Si      -0.65674764      -1.96019199      -2.76752041       0.00000000
Si       2.05219791       0.77519223      -2.75442571       0.00000000
Si      -2.88719073      -0.95423562       1.88387046       0.00000000
Si       0.72754398      -3.29844807      -1.29817697       0.00000000
Si      -2.86080093      -2.34676998      -0.04967673       0.00000000
Si      -0.22015935       1.57626927       3.45301771       0.00000000
