10
Lattice="16.28999089631971 0.0 0.0 0.0 16.28999089631971 0.0 0.0 0.0 34.642051614445585" Properties=species:S:1:pos:R:3:initial_magmoms:R:1 pbc="T T T"
Si       0.51365628       0.45032076      -2.22724267       0.00000000
Si       0.29349693       2.02659003       1.22577504       0.00000000
Si      -2.37353445      -0.50391486      -0.34337221       0.00000000
Si       2.38708773      -1.03524579      -2.29541826       0.00000000
Si       2.27742345       1.61756442       2.53652708       0.00000000
Si      -2.34714465      -1.89644922      -2.27691940       0.00000000
Si      -1.80558360       2.35649511       2.44347848       0.00000000
Si      -1.37922543      -0.09912465      -3.61826039       0.00000000
Si      -3.62882556       1.43397612      -1.02464318       0.00000000
Si      -3.48881301      -1.03205295       1.78853548       0.00000000
