10
Lattice="16.28999089631971 0.0 0.0 0.0 16.28999089631971 0.0 0.0 0.0 34.642051614445585" Properties=species:S:1:pos:R:3:initial_magmoms:R:1 pbc="T T T"
Si      -1.14013710      -0.79759098      -1.91705757       0.00000000
Si       1.60767639       1.76397894      -0.40319906       0.00000000
Si      -1.81519470       0.83838114       1.37044033       0.00000000
Si       0.80327619      -1.94466762       1.25941249       0.00000000
Si       0.62051868      -1.91565513      -2.97513034       0.00000000
Si       3.61765062       0.65500461      -0.92591327       0.00000000
Si      -1.20920670       0.28810494       3.62989220       0.00000000
Si       2.90727630      -1.23054660      -2.25765841       0.00000000
Si       0.63791640       3.28924422      -1.97231167       0.00000000
Si       0.45082575      -1.53616329       3.54481920       0.00000000
