10
Lattice="16.28999089631971 0.0 0.0 0.0 16.28999089631971 0.0 0.0 0.0 34.642051614445585" Properties=species:S:1:pos:R:3:initial_magmoms:R:1 pbc="T T T"
Si       0.31376169       2.33329815      -0.26293332       0.00000000
Si       2.08549467      -1.15520535       0.12270222       0.00000000
Si      -0.88466103      -1.07030187      -1.96566039       0.00000000
Si      -1.45204173      -0.52849647       1.88667647       0.00000000
Si      -1.73954394      -3.00907251      -0.90824582       0.00000000
Si      -3.11389866      -1.79106921       0.71414629       0.00000000
Si       1.21441950      -1.40020695      -3.18336383       0.00000000
Si       1.13223645       3.07450944       1.87808524       0.00000000
Si      -1.78758315       3.30450795      -0.78214868       0.00000000
Si      -2.09173374       1.54751742       2.95004948       0.00000000
