10
Lattice="16.28999089631971 0.0 0.0 0.0 16.28999089631971 0.0 0.0 0.0 34.642051614445585" Properties=species:S:1:pos:R:3:initial_magmoms:R:1 pbc="T T T"
Si       0.95047263       0.64096263      -2.05424017       0.00000000
Si       1.31727456      -0.44009064       1.90642245       0.00000000
Si      -1.40033727       1.82666286       0.60100529       0.00000000
Si      -0.80417214      -2.32288884      -0.20629353       0.00000000
Si      -0.35877096      -0.27736983       3.55195546       0.00000000
Si       2.48974731      -2.39692689       1.24531317       0.00000000
Si      -3.24320868       0.69501285       1.61251912       0.00000000
Si       2.88368838      -0.73656864      -2.19163062       0.00000000
Si      -0.58544631       0.13387122      -3.83709435       0.00000000
Si      -2.44250631      -1.04286951       2.94031506       0.00000000
