10
Lattice="16.28999089631971 0.0 0.0 0.0 16.28999089631971 0.0 0.0 0.0 34.642051614445585" Properties=species:S:1:pos:R:3:initial_magmoms:R:1 pbc="T T T"
Si       1.35476983      -1.35296988       1.35772669       0.00000000
Si      -1.35834165      -1.35532771      -1.35758812       0.00000000
Si       1.35630221       1.35961553      -1.35786526       0.00000000
Si      -1.35910728       1.35810056       1.36288836       0.00000000
Si       2.71445713      -2.71168620       0.00124711       0.00000000
Si       2.71023476      -0.01505685       2.71763583       0.00000000
Si      -0.00065160      -2.71344552      -2.71493374       0.00000000
Si       2.71417531       0.00239463      -2.71465661       0.00000000
Si      -2.71632492      -2.71321746       0.00038106       0.00000000
Si       2.71394562       2.71693091       0.00110855       0.00000000
