10
Lattice="16.28999089631971 0.0 0.0 0.0 16.28999089631971 0.0 0.0 0.0 34.642051614445585" Properties=species:S:1:pos:R:3:initial_magmoms:R:1 pbc="T T T"
Si      -1.93184739      -1.31362560      -0.57322235       0.00000000
Si       0.51919488       1.47970215       1.86831617       0.00000000
Si       1.42094316      -1.95662448       0.48502364       0.00000000
Si      -0.26046081       1.45630971      -2.00896298       0.00000000
Si      -0.39780180      -3.24921969      -0.40039306       0.00000000
Si      -2.57427612      -1.91940183       1.53682619       0.00000000
Si      -1.48374207       3.20227191      -0.69647884       0.00000000
Si       2.43543549       2.63044404       0.84239124       0.00000000
Si      -1.43624043       2.94524829       1.76234608       0.00000000
Si       3.64813640      -1.65387483      -0.27765620       0.00000000
