10
Lattice="16.28999089631971 0.0 0.0 0.0 16.28999089631971 0.0 0.0 0.0 34.642051614445585" Properties=species:S:1:pos:R:3:initial_magmoms:R:1 pbc="T T T"
Si       1.87406580      -1.15005771      -0.77511634       0.00000000
Si       0.84615377       0.98945460       1.96146870       0.00000000
Si      -0.45292716       1.58286672      -1.70435525       0.00000000
Si      -2.09144052      -1.21466385       0.05095849       0.00000000
Si       0.76847002      -2.77646760      -2.03605308       0.00000000
Si      -2.00280663       2.95292088      -0.53390360       0.00000000
Si      -1.70693136       0.24625593      -3.17789038       0.00000000
Si       2.43645362       2.51696790       1.14637541       0.00000000
Si       2.13806969      -0.76931154       2.91076537       0.00000000
Si      -3.36735477      -0.32998653      -1.65800416       0.00000000
