10
Lattice="16.28999089631971 0.0 0.0 0.0 16.28999089631971 0.0 0.0 0.0 34.642051614445585" Properties=species:S:1:pos:R:3:initial_magmoms:R:1 pbc="T T T"
Si       1.35581862      -1.35793440      -1.35201075       0.00000000
Si       1.35501553       1.35845568       1.35772669       0.00000000
Si      -1.35946604      -1.35703845       1.35748419       0.00000000
Si      -1.36226792       1.36174626      -1.36257658       0.00000000
Si       2.71111893      -0.00226431      -2.68479514       0.00000000
Si       0.00023462      -2.70992295      -2.69587368       0.00000000
Si       2.71124925      -2.71313208       0.00048499       0.00000000
Si       2.71154247       2.71450044       0.00031178       0.00000000
Si       2.71291083       0.00089595       2.71444876       0.00000000
Si      -0.00300092      -2.71388142       2.71427554       0.00000000
