10
Lattice="16.28999089631971 0.0 0.0 0.0 16.28999089631971 0.0 0.0 0.0 34.642051614445585" Properties=species:S:1:pos:R:3:initial_magmoms:R:1 pbc="T T T"
Si      -0.77261841       1.96765281       1.09784187       0.00000000
Si      -1.31976693      -1.98110835      -0.20709030       0.00000000
Si       1.92420968      -0.30459042       1.40733413       0.00000000
Si      -0.40099464       1.53945387      -1.88314298       0.00000000
Si      -1.27226529      -2.23813197       2.25173461       0.00000000
Si      -2.99522601      -1.16030412      -1.65069468       0.00000000
Si      -2.50623279       2.57546529      -0.42329147       0.00000000
Si      -1.81700289       0.26578764      -3.16209360       0.00000000
Si       3.80996126       0.18225252       0.07184766       0.00000000
Si       2.59941063      -2.55293622       1.33177978       0.00000000
