10
Lattice="16.28999089631971 0.0 0.0 0.0 16.28999089631971 0.0 0.0 0.0 34.642051614445585" Properties=species:S:1:pos:R:3:initial_magmoms:R:1 pbc="T T T"
Si       1.35646830      -1.35726651      -1.35703385       0.00000000
Si       1.35695700       1.35852084       1.35658350       0.00000000
Si      -1.35789530       1.35755973      -1.35672207       0.00000000
Si      -1.35826834      -1.35746199       1.35880059       0.00000000
Si      -2.71291083      -0.00089595      -2.71444876       0.00000000
Si      -0.00136836       2.71360449      -2.71413698       0.00000000
Si      -0.00166158      -2.71402803      -2.71396377       0.00000000
Si       2.71394658      -0.00079821      -2.71455268       0.00000000
Si       0.00345348       2.71384884       2.71476053       0.00000000
Si       2.71381626       2.71551042       0.00027714       0.00000000
