10
Lattice="16.28999089631971 0.0 0.0 0.0 16.28999089631971 0.0 0.0 0.0 34.642051614445585" Properties=species:S:1:pos:R:3:initial_magmoms:R:1 pbc="T T T"
Si      -1.41600825      -1.27366623      -1.27895062       0.00000000
Si       1.35710361       1.49398848      -1.28061344       0.00000000
Si       0.40099464      -1.53945387       1.88314298       0.00000000
Si      -2.10523815       1.03601142       1.45985151       0.00000000
Si      -0.37162377       0.42819894       2.98098485       0.00000000
Si       2.64177278       2.33621406       0.57606300       0.00000000
Si       1.15176816       2.30505129       2.59136548       0.00000000
Si       0.07275114      -2.49619815      -2.71275129       0.00000000
Si      -2.59423137      -2.69975799       0.23244830       0.00000000
Si      -2.48674995       2.88834732      -0.07849893       0.00000000
