10
Lattice="16.28999089631971 0.0 0.0 0.0 16.28999089631971 0.0 0.0 0.0 34.642051614445585" Properties=species:S:1:pos:R:3:initial_magmoms:R:1 pbc="T T T"
Si      -2.05946325      -1.02030786       0.64652497       0.00000000
Si      -0.07876215       1.80227673       1.59419346       0.00000000
Si       1.95543531      -1.46554614       0.10597010       0.00000000
Si      -0.04750164       0.25702362      -2.45882491       0.00000000
Si       1.27226529       2.23813197      -2.25173461       0.00000000
Si      -1.27923741       0.82116261       3.33752104       0.00000000
Si       1.43624043      -2.94524829      -1.76234608       0.00000000
Si      -2.96416098       1.29880170      -1.94740402       0.00000000
Si       3.19647497       1.93354155      -0.84440048       0.00000000
Si      -1.68609645      -3.28064310       1.43975911       0.00000000
