10
Lattice="16.28999089631971 0.0 0.0 0.0 16.28999089631971 0.0 0.0 0.0 34.642051614445585" Properties=species:S:1:pos:R:3:initial_magmoms:R:1 pbc="T T T"
Si      -0.65267514       1.78176762      -1.33074051       0.00000000
Si       0.96169644       1.05885000       1.87922842       0.00000000
Si       1.54987947      -1.37005416      -1.17045165       0.00000000
Si      -2.12706675      -1.09481832      -0.47217143       0.00000000
Si      -2.14247709       0.34026552      -2.38133060       0.00000000
Si       2.00280663      -2.95292088       0.53390360       0.00000000
Si      -1.36454814      -3.28290741      -1.12410056       0.00000000
Si       0.29587527      -2.70666495      -2.64398678       0.00000000
Si       1.26903987      -0.55069974       3.59262525       0.00000000
Si      -0.25306515       3.02637249       2.41645766       0.00000000
