10
Lattice="16.28999089631971 0.0 0.0 0.0 16.28999089631971 0.0 0.0 0.0 34.642051614445585" Properties=species:S:1:pos:R:3:initial_magmoms:R:1 pbc="T T T"
Si      -0.83430864      -1.82237859       1.33088744       0.00000000
Si       1.83152935       0.84835062       1.32926272       0.00000000
Si      -1.81980477       1.82993715       0.02102774       0.00000000
Si       0.43191306      -0.47794860      -2.52530305       0.00000000
Si      -2.14527897      -0.49273992       2.83046994       0.00000000
Si       0.55288167       2.25043092       2.79507614       0.00000000
Si       0.76709351       1.80470394      -3.27499211       0.00000000
Si      -3.48563646       0.79851951       1.44580211       0.00000000
Si      -2.49352659      -2.96134281      -0.00190531       0.00000000
Si       2.55022298      -1.51156539      -2.55197744       0.00000000
