10
Lattice="16.28999089631971 0.0 0.0 0.0 16.28999089631971 0.0 0.0 0.0 34.642051614445585" Properties=species:S:1:pos:R:3:initial_magmoms:R:1 pbc="T T T"
Si      -1.35563751      -1.35705474       1.35779597       0.00000000
Si      -1.35394335       1.35883035      -1.35987450       0.00000000
Si       1.35878148       1.35790182       1.35734562       0.00000000
Si       1.35910728      -1.35757602      -1.36004771       0.00000000
Si      -2.71249677      -2.71536381       0.00051963       0.00000000
Si       0.00091224      -2.71373481       2.71451804       0.00000000
Si      -2.71339272       2.71502527       0.00013857       0.00000000
Si      -2.71394658       0.00078192       2.71496839       0.00000000
Si       2.71552974      -2.71423980       0.00024249       0.00000000
Si       2.71537315       0.00099369       2.71486446       0.00000000
