10
Lattice="16.28999089631971 0.0 0.0 0.0 16.28999089631971 0.0 0.0 0.0 34.642051614445585" Properties=species:S:1:pos:R:3:initial_magmoms:R:1 pbc="T T T"
Si      -1.87724331       0.84615147       1.06597117       0.00000000
Si      -0.13613553      -0.47749248      -2.27449445       0.00000000
Si       2.05025940       0.86607414       0.77539347       0.00000000
Si       0.24537627      -2.32982838      -0.73614401       0.00000000
Si       1.97899065      -2.93764086       0.78498933       0.00000000
Si       3.50238258      -1.06078851       0.39536996       0.00000000
Si      -2.42750322      -0.82323144       2.70530325       0.00000000
Si      -3.55459203       1.19009106      -0.48904212       0.00000000
Si       1.13971356       1.01376386      -3.54069679       0.00000000
Si      -1.34063442       2.77632818       2.32725433       0.00000000
