10
Lattice="16.28999089631971 0.0 0.0 0.0 16.28999089631971 0.0 0.0 0.0 34.642051614445585" Properties=species:S:1:pos:R:3:initial_magmoms:R:1 pbc="T T T"
Si      -1.33877303      -1.34456031       1.37719553       0.00000000
Si      -1.35288017       1.35829278      -1.35699920       0.00000000
Si       1.36145641      -1.35759231      -1.35540567       0.00000000
Si       1.34745353       1.37104785       1.37400846       0.00000000
Si       0.29512116      -2.48295438       2.70492219       0.00000000
Si      -2.55433283       0.17376543       2.78345576       0.00000000
Si      -2.71006523       2.71388142       0.00128176       0.00000000
Si      -2.71043990      -0.00004887      -2.71420626       0.00000000
Si      -2.71159649      -2.71642266       0.00637414       0.00000000
Si       0.00391786       2.71520091      -2.71389448       0.00000000
