10
Lattice="16.28999089631971 0.0 0.0 0.0 16.28999089631971 0.0 0.0 0.0 34.642051614445585" Properties=species:S:1:pos:R:3:initial_magmoms:R:1 pbc="T T T"
Si      -1.98492021      -0.65515122       1.00538218       0.00000000
Si       0.81024831      -1.65169197      -1.50654902       0.00000000
Si      -0.33358662       1.81057878      -1.51669915       0.00000000
Si       1.08164967       0.78739737       2.06504849       0.00000000
Si       0.01703934       3.57114986      -0.00083141       0.00000000
Si       1.71881070      -0.49490649      -3.31178199       0.00000000
Si      -2.47772529       1.05497528       2.63428700       0.00000000
Si       2.39158933      -2.95777530      -0.42041617       0.00000000
Si       1.45566041       1.83235526      -3.03412579       0.00000000
Si      -3.36082248      -1.78890264      -0.52933084       0.00000000
