10
Lattice="16.28999089631971 0.0 0.0 0.0 16.28999089631971 0.0 0.0 0.0 34.642051614445585" Properties=species:S:1:pos:R:3:initial_magmoms:R:1 pbc="T T T"
Si       0.43171758       2.18234912      -0.76451586       0.00000000
Si      -0.83735487      -0.86806152      -2.02846647       0.00000000
Si       2.09754668      -0.96992289       0.53016225       0.00000000
Si      -1.66962726      -0.84413151       1.50450514       0.00000000
Si      -1.52634042       2.68804778      -1.95093751       0.00000000
Si      -3.67860780       0.26112870       0.16073921       0.00000000
Si      -3.15755586      -1.15191477      -1.64511731       0.00000000
Si       3.49485401      -0.77281389      -1.34296917       0.00000000
Si       0.37740672      -2.83558401      -2.56569570       0.00000000
Si      -1.03353534       0.97792128      -3.57984233       0.00000000
