10
Lattice="16.28999089631971 0.0 0.0 0.0 16.28999089631971 0.0 0.0 0.0 34.642051614445585" Properties=species:S:1:pos:R:3:initial_magmoms:R:1 pbc="T T T"
Si      -1.03971902      -1.91581803      -0.87502407       0.00000000
Si       1.07158878      -0.46685511       2.10564900       0.00000000
Si       1.36142046       0.46229391      -1.95107608       0.00000000
Si      -1.77056336       1.62523701       0.50400749       0.00000000
Si       1.27265625       2.85228126      -1.76875486       0.00000000
Si      -2.95602317      -2.27144502       0.35677869       0.00000000
Si      -1.91045047      -1.20560661      -3.00104261       0.00000000
Si      -0.56306385      -1.66558734       3.37081207       0.00000000
Si      -0.64135359       3.36271212       1.69960929       0.00000000
Si       0.71612469      -3.59317815      -1.09281877       0.00000000
