10
Lattice="16.28999089631971 0.0 0.0 0.0 16.28999089631971 0.0 0.0 0.0 34.642051614445585" Properties=species:S:1:pos:R:3:initial_magmoms:R:1 pbc="T T T"
Si       2.07915786       0.79053741      -0.81644433       0.00000000
Si       0.02285487       0.98513775       2.17448280       0.00000000
Si      -2.16861440       0.52918065      -0.87492014       0.00000000
Si       0.08876421      -2.38998735      -0.18232122       0.00000000
Si       1.39229001       2.86177833      -1.57926273       0.00000000
Si      -1.27265625      -2.85228126       1.76875486       0.00000000
Si       2.28398832      -0.35991126      -2.86961059       0.00000000
Si       2.42400087      -2.82594033      -0.05643193       0.00000000
Si       1.87799265      -0.15815961       3.27831774       0.00000000
Si      -0.36652500       3.34580310       1.80672257       0.00000000
