10
Lattice="16.28999089631971 0.0 0.0 0.0 16.28999089631971 0.0 0.0 0.0 34.642051614445585" Properties=species:S:1:pos:R:3:initial_magmoms:R:1 pbc="T T T"
Si      -1.35725185      -1.35640789       1.35841953       0.00000000
Si      -1.35753367       1.35767294      -1.35748419       0.00000000
Si       1.35780408      -1.35754819      -1.35758812       0.00000000
Si       1.35868374       1.35837993       1.35623708       0.00000000
Si       2.71324611       0.00589223       2.71562659       0.00000000
Si      -2.71461606       0.00062370      -2.71455268       0.00000000
Si       0.00430056       2.70927379       2.71999149       0.00000000
Si       0.00076563      -2.71440745      -2.71489910       0.00000000
Si      -0.00115659       2.71564318      -2.71448340       0.00000000
Si      -2.71540676       2.71489384      -0.00069284       0.00000000
