10
Lattice="16.28999089631971 0.0 0.0 0.0 16.28999089631971 0.0 0.0 0.0 34.642051614445585" Properties=species:S:1:pos:R:3:initial_magmoms:R:1 pbc="T T T"
Si       1.10559578       1.62640989       1.26093674       0.00000000
Si      -1.21856272      -1.46194605       1.36101768       0.00000000
Si       1.61227180      -1.64009349      -0.58288749       0.00000000
Si      -1.21229107       1.05344172      -1.81167639       0.00000000
Si      -0.76847002       2.77646760       2.03605308       0.00000000
Si      -1.56918868      -3.22251712      -0.15485006       0.00000000
Si       0.22005835      -3.20074065      -1.67227669       0.00000000
Si       3.24692443      -0.44136126      -1.84805056       0.00000000
Si       2.48031703       2.91553533      -0.11480382       0.00000000
Si       0.00141071      -1.88564895       3.34621620       0.00000000
