10
Lattice="16.28999089631971 0.0 0.0 0.0 16.28999089631971 0.0 0.0 0.0 34.642051614445585" Properties=species:S:1:pos:R:3:initial_magmoms:R:1 pbc="T T T"
Si       1.85719032       1.24690176      -0.88957374       0.00000000
Si       0.82582155       0.09329283       2.26108566       0.00000000
Si      -1.17872811      -2.07907641      -0.35875329       0.00000000
Si      -1.94745321       1.70305434       0.33467705       0.00000000
Si      -0.82350837       1.81736127       2.49317950       0.00000000
Si      -2.24961642       0.59552982      -2.66141174       0.00000000
Si       2.38024593      -0.14294475      -2.73561506       0.00000000
Si      -3.25887477      -1.08677106      -1.36863894       0.00000000
Si      -1.66456107      -2.61931797       2.10488687       0.00000000
Si       2.15752905      -2.42727516      -2.04169974       0.00000000
