10
Lattice="16.28999089631971 0.0 0.0 0.0 16.28999089631971 0.0 0.0 0.0 34.642051614445585" Properties=species:S:1:pos:R:3:initial_magmoms:R:1 pbc="T T T"
Si      -1.28466917      -0.84222558      -1.85667644       0.00000000
Si       1.83317886      -1.27752696       0.96197567       0.00000000
Si      -1.49000462      -0.03116277       2.01530248       0.00000000
Si       1.21489191       1.69196085      -1.89665339       0.00000000
Si      -2.64177278      -2.33621406      -0.57606300       0.00000000
Si       0.12910802      -2.11230801      -3.31108914       0.00000000
Si       3.21616728      -2.33989560      -0.67971207       0.00000000
Si      -0.41075398      -0.55470708       4.11606695       0.00000000
Si      -2.28538016       3.44630981      -0.83785313       0.00000000
Si      -2.57477201       0.61002792      -3.31313303       0.00000000
