10
Lattice="10.86 0.0 0.0 0.0 10.86 0.0 0.0 0.0 10.86" Properties=species:S:1:pos:R:3:initial_magmoms:R:1 pbc="T T T"
Si       1.36281054       1.19621814       1.43620242       0.00000000
Si       1.36281054      -1.51878186      -1.27879758       0.00000000
Si      -1.35218946      -1.51878186       1.43620242       0.00000000
Si      -2.63627586      -0.08501208      -2.63268120       0.00000000
Si       2.72031054       2.55371814       0.07870242       0.00000000
Si       2.72031054      -0.16128186      -2.63629758       0.00000000
Si       0.00531054      -2.87628186      -2.63629758       0.00000000
Si       2.72031054      -0.16128186       2.79370242       0.00000000
Si       0.00777576       2.76158940       2.77783596       0.00000000
Si      -2.70968946      -2.87628186       0.07870242       0.00000000
