10
Lattice="16.28999089631971 0.0 0.0 0.0 16.28999089631971 0.0 0.0 0.0 34.383488856416385" Properties=species:S:1:pos:R:3:initial_magmoms:R:1 pbc="T T T"
Si       1.52674767      -1.13783003       1.36490493       0.00000000
Si       1.79229096       1.00170142      -1.19776360       0.00000000
Si      -1.17760410       1.59068266       1.33698552       0.00000000
Si      -1.57081212      -1.44012789      -1.25848075       0.00000000
Si       0.06657723       1.18012579      -3.00903286       0.00000000
Si       0.18342540      -2.47962537       2.71473613       0.00000000
Si      -2.53223163       0.23664483       2.70737806       0.00000000
Si       2.88624591      -2.45294235      -0.03794220       0.00000000
Si      -2.41963515       3.05116261      -0.12347462       0.00000000
Si       3.74544567      -0.48860063      -1.19283404       0.00000000
