10
Lattice="16.28999089631971 0.0 0.0 0.0 16.28999089631971 0.0 0.0 0.0 34.383488856416385" Properties=species:S:1:pos:R:3:initial_magmoms:R:1 pbc="T T T"
Si      -1.35606105      -1.35343673       1.35797665       0.00000000
Si       1.35749457      -1.35756136      -1.35732336       0.00000000
Si      -1.35759231       1.35749457      -1.35770158       0.00000000
Si       1.35964485       1.35930276       1.35660131       0.00000000
Si       2.71057455      -0.00086337       2.71488741       0.00000000
Si      -2.71287144      -0.00237834       2.71313385       0.00000000
Si       2.71450044      -2.71485907       0.00027507       0.00000000
Si      -2.71453302      -2.71489731      -0.00010315       0.00000000
Si       0.00188964      -2.71567476      -2.71409659       0.00000000
Si       2.71453302       2.71528236       0.00024068       0.00000000
