10
Lattice="16.28999089631971 0.0 0.0 0.0 16.28999089631971 0.0 0.0 0.0 34.383488856416385" Properties=species:S:1:pos:R:3:initial_magmoms:R:1 pbc="T T T"
Si      -1.67234769      -0.85516082      -1.62049474       0.00000000
Si       1.08497916       1.78511684      -1.53879952       0.00000000
Si       2.04662673      -1.55966717      -0.34283796       0.00000000
Si      -0.87803100      -1.81419842       2.31163763       0.00000000
Si      -1.51861896       2.67538163       1.69486626       0.00000000
Si      -0.29903553      -2.23966064      -3.07973082       0.00000000
Si       2.43970443       0.48832370      -3.08072794       0.00000000
Si       1.27013130      -3.36966536      -1.68052834       0.00000000
Si      -3.67560718      -1.65869408      -0.49058389       0.00000000
Si       2.38526325       3.36404138      -0.13839362       0.00000000
