10
Lattice="16.28999089631971 0.0 0.0 0.0 16.28999089631971 0.0 0.0 0.0 34.383488856416385" Properties=species:S:1:pos:R:3:initial_magmoms:R:1 pbc="T T T"
Si      -0.36533583      -0.22840209       2.29386136       0.00000000
Si       0.81972909      -2.22336413      -0.49770128       0.00000000
Si      -2.12387391       0.59663754      -1.07386572       0.00000000
Si       1.77460002       1.61282403      -0.64458763       0.00000000
Si      -1.11086397       1.39624848      -2.97052880       0.00000000
Si      -1.61052714       1.70028504       2.63769644       0.00000000
Si       1.89703566       0.24031008       3.01299243       0.00000000
Si       3.07920096      -1.68538458      -0.79841944       0.00000000
Si       0.45864495       3.00001527      -2.05362379       0.00000000
Si      -1.83368385      -2.06212797       2.68469869       0.00000000
