10
Lattice="16.28999089631971 0.0 0.0 0.0 16.28999089631971 0.0 0.0 0.0 34.383488856416385" Properties=species:S:1:pos:R:3:initial_magmoms:R:1 pbc="T T T"
Si       0.55330614       2.30454630      -0.14066293       0.00000000
Si       0.54472131      -1.92452341      -1.29189155       0.00000000
Si      -2.42347959      -0.05696613      -0.22555581       0.00000000
Si       1.72571373      -0.17842437       1.81126926       0.00000000
Si      -0.06657723      -1.18012579       3.00903286       0.00000000
Si      -1.63738935      -2.62025369       1.75055211       0.00000000
Si      -2.46843999       0.62278299      -2.51952032       0.00000000
Si      -2.88380241      -2.32149509      -0.25323454       0.00000000
Si      -1.19019627       3.29665617       1.34236654       0.00000000
Si       0.96109371      -1.19362532      -3.48033307       0.00000000
