10
Lattice="16.28999089631971 0.0 0.0 0.0 16.28999089631971 0.0 0.0 0.0 34.383488856416385" Properties=species:S:1:pos:R:3:initial_magmoms:R:1 pbc="T T T"
Si       0.99619866       2.04879330      -0.45991380       0.00000000
Si       1.19513214      -1.34955157      -1.54364759       0.00000000
Si       0.04496040      -0.67974912       2.29396451       0.00000000
Si      -2.08608111       0.59368905      -1.08438708       0.00000000
Si       0.57718728       2.06408961      -2.75827940       0.00000000
Si       0.58081995      -0.26740035      -3.51970219       0.00000000
Si       2.46843999      -0.62278299       2.51952032       0.00000000
Si       0.28439082      -3.43775105      -1.29749606       0.00000000
Si      -0.41536242      -2.94427808       2.26628578       0.00000000
Si      -3.63717418       0.68395194       0.69650672       0.00000000
