10
Lattice="16.28999089631971 0.0 0.0 0.0 16.28999089631971 0.0 0.0 0.0 34.383488856416385" Properties=species:S:1:pos:R:3:initial_magmoms:R:1 pbc="T T T"
Si       1.35646830       1.35726651      -1.35739213       0.00000000
Si       1.35759231      -1.35749457       1.35770158       0.00000000
Si      -1.35772263       1.35785295       1.35752967       0.00000000
Si      -1.35949824      -1.35812988      -1.35715145       0.00000000
Si       0.00153126      -2.71093130       2.71567823       0.00000000
Si      -2.71504941       2.71417464       0.00099712       0.00000000
Si      -2.71406713       0.00004887       2.71533440       0.00000000
Si       2.71544526       2.71423980       0.00017192       0.00000000
Si      -2.71498751      -2.71510806      -0.00003438       0.00000000
Si      -2.71543549      -0.00171045      -2.71468111       0.00000000
