10
Lattice="16.28999089631971 0.0 0.0 0.0 16.28999089631971 0.0 0.0 0.0 34.383488856416385" Properties=species:S:1:pos:R:3:initial_magmoms:R:1 pbc="T T T"
Si      -0.77493159       1.72462230      -1.45720746       0.00000000
Si      -1.82392614      -1.61038053      -0.20251886       0.00000000
Si       1.83475899      -0.85515984      -1.38981578       0.00000000
Si       0.53356266       0.78284853       2.27821686       0.00000000
Si       0.62902206      -2.31363612      -2.78643949       0.00000000
Si      -2.06045694       0.56045745      -3.02248228       0.00000000
Si      -0.83924451      -3.45391983      -1.26747926       0.00000000
Si      -3.45191616      -0.62408619      -1.60227148       0.00000000
Si       3.28093632      -2.08468017      -0.04435473       0.00000000
Si       3.86530749       0.18987624       0.94011388       0.00000000
