10
Lattice="16.28999089631971 0.0 0.0 0.0 16.28999089631971 0.0 0.0 0.0 34.383488856416385" Properties=species:S:1:pos:R:3:initial_magmoms:R:1 pbc="T T T"
Si      -2.17948129       0.38341773      -0.69275892       0.00000000
Si       1.17936342       1.93132611      -0.51417098       0.00000000
Si       1.24519131      -1.92868713      -0.34383508       0.00000000
Si      -0.70682310      -0.55697139       2.17403483       0.00000000
Si      -2.70877355      -1.26850230       0.91920870       0.00000000
Si      -0.37506096       1.71740583       2.91011697       0.00000000
Si       3.28942341       1.08333387       0.18883423       0.00000000
Si       1.61052714      -1.70028504      -2.63769644       0.00000000
Si       0.33462918       3.30121737       1.26637899       0.00000000
Si      -2.10584088       0.53261784      -3.01746228       0.00000000
