10
Lattice="16.28999089631971 0.0 0.0 0.0 16.28999089631971 0.0 0.0 0.0 34.383488856416385" Properties=species:S:1:pos:R:3:initial_magmoms:R:1 pbc="T T T"
Si      -1.79659152      -1.33130025      -0.77675783       0.00000000
Si       1.67931981      -1.62797373      -0.44605725       0.00000000
Si      -0.20603592       2.03849802      -1.24722737       0.00000000
Si       0.09650196       0.40254219       2.37830725       0.00000000
Si      -1.39507560       2.24854128       2.33704704       0.00000000
Si       2.08521774      -2.40991002       1.71608089       0.00000000
Si      -1.40480073       3.43961721       0.24842085       0.00000000
Si      -0.95185728      -2.70119151      -2.55730780       0.00000000
Si       2.29617324       1.18363140       2.90784766       0.00000000
Si      -2.50628166      -2.91511179       0.86698016       0.00000000
