10
Lattice="16.28999089631971 0.0 0.0 0.0 16.28999089631971 0.0 0.0 0.0 34.383488856416385" Properties=species:S:1:pos:R:3:initial_magmoms:R:1 pbc="T T T"
Si      -1.19876481       1.40111919       1.49564822       0.00000000
Si       1.98265590       1.29124314      -0.30814500       0.00000000
Si       0.20603592      -2.03849802       1.24722737       0.00000000
Si      -1.02470616       0.03556107      -2.19617781       0.00000000
Si       2.22659865       0.74230272      -2.59640185       0.00000000
Si       0.22398750       1.79950743      -3.22709853       0.00000000
Si      -1.59055560      -3.36979827       0.47046954       0.00000000
Si      -1.18903968       0.21004326       3.58427442       0.00000000
Si       1.38596949       3.56327460      -0.25863275       0.00000000
Si      -0.02844234       3.56553891       1.72086020       0.00000000
