10
Lattice="16.28999089631971 0.0 0.0 0.0 16.28999089631971 0.0 0.0 0.0 34.383488856416385" Properties=species:S:1:pos:R:3:initial_magmoms:R:1 pbc="T T T"
Si      -1.24519131       1.92868713       0.34383508       0.00000000
Si       0.36533583       0.22840209      -2.29386136       0.00000000
Si      -1.46834802      -1.83372588       0.39083734       0.00000000
Si       2.26237149       0.46871217       0.71913107       0.00000000
Si      -1.95201441       1.37171574       2.51786991       0.00000000
Si       1.18506492      -1.99496204      -2.79156264       0.00000000
Si       2.04423210       3.01202100       0.53266931       0.00000000
Si      -1.02542292      -2.42410580       2.62906618       0.00000000
Si      -0.86723073      -0.31312475       3.74584252       0.00000000
Si      -0.06582789       3.86001324      -0.17033590       0.00000000
