10
Lattice="16.28999089631971 0.0 0.0 0.0 16.28999089631971 0.0 0.0 0.0 34.383488856416385" Properties=species:S:1:pos:R:3:initial_magmoms:R:1 pbc="T T T"
Si       1.35764118       1.35498591      -1.35508844       0.00000000
Si       1.35094599      -1.35718506       1.36165569       0.00000000
Si      -1.35599589       1.35265644       1.36169007       0.00000000
Si      -1.35679410      -1.35993807      -1.35443515       0.00000000
Si      -0.02163312      -2.69454519       2.70900783       0.00000000
Si      -2.67719471      -0.00689067       2.72699041       0.00000000
Si       0.00039096       2.71287144      -2.71230865       0.00000000
Si      -2.71208626       2.71389771       0.00178794       0.00000000
Si      -2.71506245      -0.00270414      -2.71206797       0.00000000
Si       2.71480995      -0.00211770      -2.71248057       0.00000000
