10
Lattice="16.28999089631971 0.0 0.0 0.0 16.28999089631971 0.0 0.0 0.0 34.383488856416385" Properties=species:S:1:pos:R:3:initial_magmoms:R:1 pbc="T T T"
Si      -0.74145075      -1.88514396      -1.17773830       0.00000000
Si      -1.55109308       0.09026289       1.78089380       0.00000000
Si       2.08608111      -0.59368905       1.08438708       0.00000000
Si       0.42020055       2.00744928      -1.33817175       0.00000000
Si       3.08227977       1.45510425       0.62447327       0.00000000
Si       2.66326839       1.47040056      -1.67389232       0.00000000
Si       0.60090552      -1.89812546      -3.10005147       0.00000000
Si       2.66690106      -0.86108940      -2.43531511       0.00000000
Si       0.07571592      -3.74540399       0.00378219       0.00000000
Si       3.28121325      -1.94324062      -0.45926052       0.00000000
