10
Lattice="16.28999089631971 0.0 0.0 0.0 16.28999089631971 0.0 0.0 0.0 34.383488856416385" Properties=species:S:1:pos:R:3:initial_magmoms:R:1 pbc="T T T"
Si      -1.34235627       0.01298150       1.92231317       0.00000000
Si      -1.08478368       1.68484049      -1.22797261       0.00000000
Si      -0.15819219      -2.11098105      -1.11677634       0.00000000
Si       2.06599554       1.03703606       0.66473636       0.00000000
Si      -0.52518960      -1.84727853       3.10383366       0.00000000
Si      -0.60090552       1.89812546       3.10005147       0.00000000
Si      -0.60111729      -1.52060113      -3.35500518       0.00000000
Si       2.68030773      -0.04511515       2.64079095       0.00000000
Si       0.86723073       0.31312475      -3.74584252       0.00000000
Si      -1.93140267      -3.34662642      -0.17501206       0.00000000
