10
Lattice="16.28999089631971 0.0 0.0 0.0 16.28999089631971 0.0 0.0 0.0 34.383488856416385" Properties=species:S:1:pos:R:3:initial_magmoms:R:1 pbc="T T T"
Si      -1.35716877       1.35602033       1.36316856       0.00000000
Si       1.35677781      -1.36182675       1.36378746       0.00000000
Si      -1.37161800      -1.37443088      -1.34082272       0.00000000
Si       1.36524861       1.37462350      -1.37695979       0.00000000
Si       2.70716994       2.71814125       0.00213178       0.00000000
Si      -2.71319724       2.71260265       0.00374780       0.00000000
Si       2.71399545      -2.71583526       0.00584520       0.00000000
Si      -2.71494027      -2.71622622       0.00900848       0.00000000
Si       0.00024435       2.71314022       2.72032001       0.00000000
Si      -0.01211976      -2.68954320      -2.74366985       0.00000000
