10
Lattice="16.28999089631971 0.0 0.0 0.0 16.28999089631971 0.0 0.0 0.0 34.383488856416385" Properties=species:S:1:pos:R:3:initial_magmoms:R:1 pbc="T T T"
Si      -1.28619324       1.31554782       1.45425047       0.00000000
Si      -1.35645201      -1.35850455      -1.35526035       0.00000000
Si       1.36430379       1.35580041      -1.35185639       0.00000000
Si       1.40592474      -1.27446444       1.42863476       0.00000000
Si      -2.68995141       2.69247636       0.00708300       0.00000000
Si      -2.70001863      -2.70045357       0.03087639       0.00000000
Si       2.71627605      -2.68605321      -0.00065329       0.00000000
Si      -2.70738171       0.00166158      -2.71354646       0.00000000
Si       0.00623907      -2.71351978      -2.71151783       0.00000000
Si       0.00619020       2.71702539      -2.71254934       0.00000000
