10
Lattice="16.28999089631971 0.0 0.0 0.0 16.28999089631971 0.0 0.0 0.0 34.383488856416385" Properties=species:S:1:pos:R:3:initial_magmoms:R:1 pbc="T T T"
Si      -0.14946075      -0.91976598       2.14233324       0.00000000
Si       0.82811844      -1.82666286      -1.26730734       0.00000000
Si      -2.01556170       0.84025449      -0.93406238       0.00000000
Si      -0.72373212       2.18799135      -2.56703833       0.00000000
Si       2.11501215      -0.52628103      -2.70856085       0.00000000
Si      -0.13553280      -3.56490360       1.12420318       0.00000000
Si       0.77504562       3.09998700       2.09048291       0.00000000
Si       2.33463393      -3.00903993       0.60463399       0.00000000
Si      -3.65653485       1.64643030       0.86477961       0.00000000
Si      -2.15726841      -1.14947127       3.31494840       0.00000000
