10
Lattice="16.28999089631971 0.0 0.0 0.0 16.28999089631971 0.0 0.0 0.0 34.383488856416385" Properties=species:S:1:pos:R:3:initial_magmoms:R:1 pbc="T T T"
Si       0.14946075       0.91976598      -2.14233324       0.00000000
Si      -2.00780766      -0.22970529       1.17261516       0.00000000
Si       1.72353087      -0.24700527       1.56190524       0.00000000
Si       0.01392795      -2.64513762      -1.01813006       0.00000000
Si       0.43595298      -1.95696657       2.74445723       0.00000000
Si       2.48409468      -2.08927395      -1.53769925       0.00000000
Si       3.58642269      -0.59227182       0.08049179       0.00000000
Si      -1.21195971      -0.34666749       3.41190989       0.00000000
Si       0.97757919      -0.90689688      -3.40964058       0.00000000
Si       0.02335986      -3.59049519       1.09844993       0.00000000
