10
Lattice="16.28999089631971 0.0 0.0 0.0 16.28999089631971 0.0 0.0 0.0 34.383488856416385" Properties=species:S:1:pos:R:3:initial_magmoms:R:1 pbc="T T T"
Si      -0.73583559      -2.13377823       0.61085740       0.00000000
Si       2.04470451      -0.60942519      -1.00977487       0.00000000
Si      -0.40752693       1.59663177       1.76009178       0.00000000
Si      -1.59430230       0.26914338      -1.80544363       0.00000000
Si      -0.81223569      -2.85781986      -1.64060909       0.00000000
Si       1.27936773      -2.20514472      -2.56112437       0.00000000
Si      -2.55796983       2.28328785      -1.15250081       0.00000000
Si      -2.72137482       2.08608111       1.17987008       0.00000000
Si       0.65440188       3.51161901       0.82571995       0.00000000
Si      -2.75822280      -1.82040750       1.83143756       0.00000000
