10
Lattice="16.28999089631971 0.0 0.0 0.0 16.28999089631971 0.0 0.0 0.0 34.383488856416385" Properties=species:S:1:pos:R:3:initial_magmoms:R:1 pbc="T T T"
Si       1.35523026       1.34459289      -1.38232018       0.00000000
Si      -1.35887922      -1.37142252      -1.37850361       0.00000000
Si       1.48064697      -1.30025151       1.32190835       0.00000000
Si      -1.35809730       1.41402087       1.46343087       0.00000000
Si       0.19375326      -2.60063334       2.76316186       0.00000000
Si       2.72323188       2.67660990      -0.02076764       0.00000000
Si      -2.72137482       2.70360243      -0.00612026       0.00000000
Si      -2.71013472      -2.72215674      -0.01041820       0.00000000
Si       0.00213399       2.70291825      -2.73899025       0.00000000
Si      -2.71311579      -0.01044189      -2.73809628       0.00000000
