10
Lattice="16.28999089631971 0.0 0.0 0.0 16.28999089631971 0.0 0.0 0.0 34.383488856416385" Properties=species:S:1:pos:R:3:initial_magmoms:R:1 pbc="T T T"
Si      -1.06192881      -1.91498724       0.93437183       0.00000000
Si      -1.26618912       0.24871572      -2.04605941       0.00000000
Si      -0.62887545       1.89553698       1.39768960       0.00000000
Si       2.45441430      -0.22973787      -0.04280747       0.00000000
Si      -0.65440188      -3.51161901      -0.82571995       0.00000000
Si      -3.37577670      -1.42553790       0.35415013       0.00000000
Si      -0.02471193       1.30026780       3.60287589       0.00000000
Si       3.07819098      -0.64728315       2.24909403       0.00000000
Si       3.35112993       1.86439050      -0.79532493       0.00000000
Si      -3.21237171      -1.22833116      -1.97822075       0.00000000
