10
Lattice="16.28999089631971 0.0 0.0 0.0 16.28999089631971 0.0 0.0 0.0 34.383488856416385" Properties=species:S:1:pos:R:3:initial_magmoms:R:1 pbc="T T T"
Si       1.35770634       1.33408584      -1.38593044       0.00000000
Si       1.58945995      -1.17415062       1.32170205       0.00000000
Si      -1.35596331      -1.38396582      -1.38923126       0.00000000
Si      -1.30077279       1.47929490       1.56152702       0.00000000
Si      -2.70137070       2.68921836      -0.00852711       0.00000000
Si       2.72443312       2.69415423      -0.00110027       0.00000000
Si      -2.71487511      -2.71107465      -0.03366145       0.00000000
Si       0.00490329       2.69159670      -2.74607326       0.00000000
Si      -2.70866862      -0.02495628      -2.74600449       0.00000000
Si       2.72015374      -0.02511918      -2.74552312       0.00000000
