10
Lattice="16.28999089631971 0.0 0.0 0.0 16.28999089631971 0.0 0.0 0.0 34.383488856416385" Properties=species:S:1:pos:R:3:initial_magmoms:R:1 pbc="T T T"
Si       1.21003749      -1.92181275      -0.26468425       0.00000000
Si      -1.97524395      -1.16278020      -0.38760529       0.00000000
Si       0.26466363       0.68374017       2.23626898       0.00000000
Si       0.60517350       1.35687555      -1.85935697       0.00000000
Si       3.35282409       0.94433130       0.45221190       0.00000000
Si       2.18015586       1.97512992       2.15622417       0.00000000
Si      -2.53346967      -2.04923313       1.64291278       0.00000000
Si      -3.50575461       0.45958977      -0.95228564       0.00000000
Si       3.20662134      -1.37249766      -1.29395456       0.00000000
Si      -1.72452456       1.72445940       2.83643311       0.00000000
