10
Lattice="16.28999089631971 0.0 0.0 0.0 16.28999089631971 0.0 0.0 0.0 34.383488856416385" Properties=species:S:1:pos:R:3:initial_magmoms:R:1 pbc="T T T"
Si      -1.35527913      -1.35799956       1.35687638       0.00000000
Si      -1.35773892       1.35711990      -1.35742652       0.00000000
Si       1.35855342      -1.35757602      -1.35725460       0.00000000
Si       1.35829278       1.35855342       1.35680761       0.00000000
Si       2.71554203       0.00066789      -2.71113961       0.00000000
Si      -2.71274112       0.00011403      -2.71402783       0.00000000
Si       2.71109583       0.00104256       2.71695042       0.00000000
Si      -2.71459818       2.71415835       0.00006877       0.00000000
Si       2.71474673       2.71428867       0.00003438       0.00000000
Si       0.00327429       2.71363707       2.71653782       0.00000000
