10
Lattice="16.28999089631971 0.0 0.0 0.0 16.28999089631971 0.0 0.0 0.0 34.383488856416385" Properties=species:S:1:pos:R:3:initial_magmoms:R:1 pbc="T T T"
Si      -1.35280305       1.35751086      -1.36014281       0.00000000
Si      -1.35770634      -1.33408584       1.38593044       0.00000000
Si       1.36244740      -1.35920502      -1.35959268       0.00000000
Si       1.36672678       1.36006839       1.38483017       0.00000000
Si       0.23175361      -2.50823646       2.70763249       0.00000000
Si      -2.70782154       2.71259451      -0.00041260       0.00000000
Si      -2.71109583      -0.00104256      -2.71695042       0.00000000
Si       2.71555019       2.71422351       0.00037822       0.00000000
Si       0.00365090       2.71324611      -2.71691604       0.00000000
Si      -2.71366965      -2.71805166      -0.00330082       0.00000000
