10
Lattice="16.28999089631971 0.0 0.0 0.0 16.28999089631971 0.0 0.0 0.0 34.383488856416385" Properties=species:S:1:pos:R:3:initial_magmoms:R:1 pbc="T T T"
Si       1.35645395       1.35573525      -1.35677323       0.00000000
Si      -1.35501849       1.35508365       1.35973021       0.00000000
Si       1.35280305      -1.35751086       1.36014281       0.00000000
Si      -1.35829278      -1.35855342      -1.35680761       0.00000000
Si       0.01203831       2.70065394       2.72004494       0.00000000
Si      -0.00032580       2.71327869      -2.71416536       0.00000000
Si       2.71426816      -0.00259011      -2.71378714       0.00000000
Si      -2.71474479       2.71344159       0.00006877       0.00000000
Si       2.71503379       2.71453302       0.00044699       0.00000000
Si      -2.71357191      -2.71655298       0.00006877       0.00000000
