10
Lattice="16.28999089631971 0.0 0.0 0.0 16.28999089631971 0.0 0.0 0.0 34.383488856416385" Properties=species:S:1:pos:R:3:initial_magmoms:R:1 pbc="T T T"
Si      -1.28226735      -1.42736238       1.38331730       0.00000000
Si      -1.40059791       1.20992346      -1.57005413       0.00000000
Si       1.30077279      -1.47929490      -1.56152702       0.00000000
Si       1.43612640       1.34353404       1.62633993       0.00000000
Si      -2.72513781       2.61926910      -0.19883983       0.00000000
Si      -2.76465735       0.04018743       2.60180006       0.00000000
Si       2.75263844       2.67553476      -0.08963781       0.00000000
Si      -2.72445363      -2.77878078      -0.16590043       0.00000000
Si      -0.04934241       2.56738545      -2.94787006       0.00000000
Si       2.89023274      -2.65344552      -0.23982497       0.00000000
