10
Lattice="16.28999089631971 0.0 0.0 0.0 16.28999089631971 0.0 0.0 0.0 34.383488856416385" Properties=species:S:1:pos:R:3:initial_magmoms:R:1 pbc="T T T"
Si      -0.55667817       2.21315940      -0.61443329       0.00000000
Si      -1.35847197      -0.40667985       1.90054841       0.00000000
Si       2.32742465       0.02081862       0.48288199       0.00000000
Si      -0.89117703      -1.32936174      -1.83501344       0.00000000
Si      -1.16318745      -2.76057996       1.80365568       0.00000000
Si       2.25378424      -0.12838149       2.80758535       0.00000000
Si      -3.44168604       0.41777334       1.04453659       0.00000000
Si       3.02230066       2.18650896      -0.08829685       0.00000000
Si      -2.73919608       2.57126247       0.38303228       0.00000000
Si       0.59219037      -3.12355048      -2.22134654       0.00000000
