10
Lattice="16.28999089631971 0.0 0.0 0.0 16.28999089631971 0.0 0.0 0.0 34.383488856416385" Properties=species:S:1:pos:R:3:initial_magmoms:R:1 pbc="T T T"
Si       1.90421955       1.10864853      -0.70462123       0.00000000
Si       0.64630575      -2.16479439       0.63716079       0.00000000
Si      -1.46017044       0.74409462      -1.70490625       0.00000000
Si       0.01801674       0.40773870       2.35104113       0.00000000
Si       1.43247744      -1.47615093       2.79183770       0.00000000
Si       1.03084749       3.23465643      -1.33961586       0.00000000
Si       3.18363845       1.41172398       1.24255121       0.00000000
Si       2.51284231      -0.07222986      -2.73311067       0.00000000
Si      -1.26918648      -3.45618414       0.71720559       0.00000000
Si      -0.18279009       2.23233273      -3.08708889       0.00000000
