10
Lattice="16.28999089631971 0.0 0.0 0.0 16.28999089631971 0.0 0.0 0.0 34.383488856416385" Properties=species:S:1:pos:R:3:initial_magmoms:R:1 pbc="T T T"
Si      -1.94955462      -0.03054375       1.31468781       0.00000000
Si       1.49095854       1.79815536       0.43935247       0.00000000
Si      -0.01801674      -0.40773870      -2.35104113       0.00000000
Si       1.41446070      -1.88388963       0.44079657       0.00000000
Si       0.62828901      -2.57253309      -1.71388034       0.00000000
Si       3.16562171       1.00398528      -1.10848992       0.00000000
Si       1.88620281       0.70090983      -3.05566236       0.00000000
Si       0.20970117       3.81011697       0.02864146       0.00000000
Si       3.69376469      -1.01472039       0.08898452       0.00000000
Si      -3.17233089       1.98451296       1.01235363       0.00000000
