10
Lattice="16.28999089631971 0.0 0.0 0.0 16.28999089631971 0.0 0.0 0.0 34.383488856416385" Properties=species:S:1:pos:R:3:initial_magmoms:R:1 pbc="T T T"
Si      -1.35347094      -1.35705474       1.38219639       0.00000000
Si       1.36467846       1.35498984       1.37820791       0.00000000
Si       1.24276410      -1.57563396      -1.29886796       0.00000000
Si      -1.27654956       1.49569960      -1.44131884       0.00000000
Si      -0.27297153      -2.49051294      -2.82876701       0.00000000
Si      -2.69874801      -2.72256399       0.00220742       0.00000000
Si      -2.70221778       2.73340403      -0.00060859       0.00000000
Si      -2.71068858      -0.00304623       2.74013866       0.00000000
Si       2.73371248       2.71789595      -0.00536039       0.00000000
Si       0.00602730       2.71561535       2.73841949       0.00000000
