10
Lattice="16.28999089631971 0.0 0.0 0.0 16.28999089631971 0.0 0.0 0.0 34.383488856416385" Properties=species:S:1:pos:R:3:initial_magmoms:R:1 pbc="T T T"
Si      -0.77030523       2.08273907       0.74282131       0.00000000
Si      -0.27767934       0.39110661      -2.29558053       0.00000000
Si       2.32744582      -0.27189639       0.15950509       0.00000000
Si      -0.89671563      -2.09412837       0.75251746       0.00000000
Si       2.41044663      -2.15311446      -1.24079766       0.00000000
Si       0.53019063      -3.49487289      -0.67487950       0.00000000
Si      -0.82446948       3.49872452      -1.11901127       0.00000000
Si       2.91632769      -0.69665814       2.39560216       0.00000000
Si       0.55252422       2.95412701       2.41203747       0.00000000
Si      -1.86116508       2.06559385      -2.66960433       0.00000000
