10
Lattice="16.28999089631971 0.0 0.0 0.0 16.28999089631971 0.0 0.0 0.0 34.383488856416385" Properties=species:S:1:pos:R:3:initial_magmoms:R:1 pbc="T T T"
Si      -1.26398997       1.98174366      -0.12271474       0.00000000
Si       1.83891294       0.03419271      -1.47649660       0.00000000
Si      -1.54311912      -1.79141130      -0.49278444       0.00000000
Si       1.36280511       0.56163033       1.96546447       0.00000000
Si      -3.22890606       1.09066437       0.92814842       0.00000000
Si       1.88838567      -1.61720604       2.58684323       0.00000000
Si       3.12254865       1.86176781      -0.74275254       0.00000000
Si      -2.30120685      -1.23351138      -2.79121880       0.00000000
Si      -0.32034285      -3.80646801      -0.19045025       0.00000000
Si       3.12017031      -1.97776890      -1.06578560       0.00000000
