10
Lattice="16.28999089631971 0.0 0.0 0.0 16.28999089631971 0.0 0.0 0.0 34.383488856416385" Properties=species:S:1:pos:R:3:initial_magmoms:R:1 pbc="T T T"
Si      -1.27851641       1.36805049       1.38015401       0.00000000
Si       1.32119882       1.35954711      -1.36530034       0.00000000
Si      -1.39648007      -1.35648459      -1.36316856       0.00000000
Si       1.61681345      -1.31784471       1.64170936       0.00000000
Si      -2.18014839      -0.36227331       2.67692802       0.00000000
Si      -0.28164107      -2.16179703       2.82828422       0.00000000
Si       2.65556159      -2.68765452      -0.01798257       0.00000000
Si       2.66338079       2.72116305       0.01977052       0.00000000
Si       2.67719471       0.00689067      -2.72699041       0.00000000
Si      -0.03676327      -2.70923877      -2.72472110       0.00000000
