10
Lattice="16.28999089631971 0.0 0.0 0.0 16.28999089631971 0.0 0.0 0.0 34.383488856416385" Properties=species:S:1:pos:R:3:initial_magmoms:R:1 pbc="T T T"
Si      -0.30859287       2.07086625       0.99117339       0.00000000
Si       2.29493846      -0.45722772       0.06952345       0.00000000
Si      -0.56770976       0.56428560      -2.23066447       0.00000000
Si      -1.45502673      -1.74565269       0.72349778       0.00000000
Si      -2.21493894      -1.08251937      -2.66547831       0.00000000
Si      -0.07598145       1.65653010       3.29648445       0.00000000
Si      -2.59045602       2.57528610       0.59844496       0.00000000
Si      -1.78836900      -3.02282127      -1.45067459       0.00000000
Si       1.13515562       3.65355378      -0.04208541       0.00000000
Si      -3.16987503      -0.68755203       2.11492958       0.00000000
