10
Lattice="16.28999089631971 0.0 0.0 0.0 16.28999089631971 0.0 0.0 0.0 34.383488856416385" Properties=species:S:1:pos:R:3:initial_magmoms:R:1 pbc="T T T"
Si       1.90752349      -0.98593596       0.84834429       0.00000000
Si      -1.88209156       0.33594867       1.32125506       0.00000000
Si      -0.65030692      -0.02461419      -2.33137376       0.00000000
Si       1.66485136       1.81135026       0.71211684       0.00000000
Si      -0.30100045      -0.09697437       2.96906788       0.00000000
Si      -2.40767212       2.51478504       0.69987631       0.00000000
Si       0.02679526       3.60026919       0.30498172       0.00000000
Si       2.96971294      -2.19282948      -0.83761664       0.00000000
Si      -3.48765025      -1.40621796       1.02098389       0.00000000
Si      -1.93156429       1.98734742      -2.74208477       0.00000000
