10
Lattice="16.28999089631971 0.0 0.0 0.0 16.28999089631971 0.0 0.0 0.0 34.383488856416385" Properties=species:S:1:pos:R:3:initial_magmoms:R:1 pbc="T T T"
Si      -1.35681039       1.35105839       1.35515720       0.00000000
Si       1.35606105       1.35343673      -1.35797665       0.00000000
Si      -1.35847197      -1.36146058      -1.35807980       0.00000000
Si       1.35509994      -1.36331650       1.36182760       0.00000000
Si      -2.69550467       0.00940259       2.71897905       0.00000000
Si      -2.71559839       2.71098017      -0.00034384       0.00000000
Si      -0.00153126       2.71093130      -2.71567823       0.00000000
Si       2.71570590       2.71273949      -0.00137534       0.00000000
Si       2.71355562      -0.00412463      -2.71530002       0.00000000
Si      -2.71394332      -2.71773468      -0.00092835       0.00000000
