10
Lattice="16.28999089631971 0.0 0.0 0.0 16.28999089631971 0.0 0.0 0.0 34.383488856416385" Properties=species:S:1:pos:R:3:initial_magmoms:R:1 pbc="T T T"
Si      -1.32119882      -1.35954711       1.36530034       0.00000000
Si       1.35599589      -1.35265644      -1.36169007       0.00000000
Si      -1.35609037       1.36124127      -1.35990213       0.00000000
Si       1.34218197       1.36161594       1.38507086       0.00000000
Si      -2.59971524       0.00850338       2.74545435       0.00000000
Si       2.70694188      -2.70984150      -0.00003438       0.00000000
Si       2.71295289       2.71565944       0.00285383       0.00000000
Si      -0.00079821      -2.71259451      -2.71612522       0.00000000
Si       2.71363707       0.00232947      -2.71677851       0.00000000
Si      -2.71614493       0.00242721      -2.71664097       0.00000000
