10
Lattice="16.28999089631971 0.0 0.0 0.0 16.28999089631971 0.0 0.0 0.0 34.383488856416385" Properties=species:S:1:pos:R:3:initial_magmoms:R:1 pbc="T T T"
Si       1.27851641      -1.36805049      -1.38015401       0.00000000
Si      -0.90163197      -1.73032380       1.29677401       0.00000000
Si       0.56532555       1.93407912       1.22876343       0.00000000
Si      -1.46611305       1.32610374      -1.38689318       0.00000000
Si      -1.02095622       0.48627279       2.59055665       0.00000000
Si       2.56858505       2.73761238       0.09885259       0.00000000
Si       2.59971524      -0.00850338      -2.74545435       0.00000000
Si      -2.70869796      -2.65075767      -0.04421719       0.00000000
Si      -0.11669832       2.70837749      -2.74387271       0.00000000
Si      -0.11796366      -2.72453508      -2.74332258       0.00000000
