10
Lattice="16.28999089631971 0.0 0.0 0.0 16.28999089631971 0.0 0.0 0.0 34.383488856416385" Properties=species:S:1:pos:R:3:initial_magmoms:R:1 pbc="T T T"
Si      -0.46592658       2.34356085      -0.22136102       0.00000000
Si      -1.91503611      -1.34301276      -0.60783166       0.00000000
Si       1.76712291      -0.15017751      -1.73141593       0.00000000
Si       0.54299457      -0.68229036       2.33890375       0.00000000
Si       0.89586855      -2.31085053      -2.20817766       0.00000000
Si      -0.61991595      -3.31076331      -0.46899105       0.00000000
Si      -2.55666500       2.22979149       1.00681788       0.00000000
Si       0.46810944       1.44754569       3.30016349       0.00000000
Si       0.82407852       3.21352830       1.63469512       0.00000000
Si      -3.56834731      -1.42472340       1.06963655       0.00000000
