10
Lattice="16.28999089631971 0.0 0.0 0.0 16.28999089631971 0.0 0.0 0.0 34.383488856416385" Properties=species:S:1:pos:R:3:initial_magmoms:R:1 pbc="T T T"
Si       1.34318986       1.35198855       1.38768744       0.00000000
Si      -1.36920332      -1.36298267       1.38397402       0.00000000
Si      -1.33043312       1.40317173      -1.41599194       0.00000000
Si       1.37403661      -1.18466256      -1.65818250       0.00000000
Si      -0.55082630      -1.48961462      -3.25901816       0.00000000
Si       2.67624618      -2.71175462      -0.00280569       0.00000000
Si       2.70261969       2.71458189       0.00988182       0.00000000
Si      -2.71594649       2.71414206       0.01701640       0.00000000
Si       2.69910105      -0.00441459       2.74521711       0.00000000
Si      -2.73397952      -2.71794482       0.00543947       0.00000000
