10
Lattice="16.28999089631971 0.0 0.0 0.0 16.28999089631971 0.0 0.0 0.0 34.383488856416385" Properties=species:S:1:pos:R:3:initial_magmoms:R:1 pbc="T T T"
Si      -1.66848696      -0.85696070      -1.62262651       0.00000000
Si       1.09384092       1.78075438      -1.53972787       0.00000000
Si       2.04959151      -1.56257982      -0.34445398       0.00000000
Si      -0.87446349      -1.81502595       2.30991846       0.00000000
Si      -1.51915653       2.67650890       1.69754818       0.00000000
Si      -0.29579382      -2.24250813      -3.08158753       0.00000000
Si       2.44288098       0.48505919      -3.08437259       0.00000000
Si       1.27475766      -3.37151916      -1.68169738       0.00000000
Si      -3.67220420      -1.66054788      -0.49347211       0.00000000
Si       2.36302740       3.38719273      -0.13323609       0.00000000
