10
Lattice="16.28999089631971 0.0 0.0 0.0 16.28999089631971 0.0 0.0 0.0 34.383488856416385" Properties=species:S:1:pos:R:3:initial_magmoms:R:1 pbc="T T T"
Si      -0.35994384      -0.23017770       2.29709341       0.00000000
Si       0.82652202      -2.22566102      -0.49581019       0.00000000
Si      -2.11905207       0.59794074      -1.07365942       0.00000000
Si       1.78414596       1.62119709      -0.64757899       0.00000000
Si      -1.10993544       1.39686750      -2.96193292       0.00000000
Si      -1.60464645       1.69821621       2.64195999       0.00000000
Si       1.90249281       0.23851818       3.01598379       0.00000000
Si       3.08141640      -1.68717322      -0.79460287       0.00000000
Si      -1.82853621      -2.06421309       2.68724307       0.00000000
Si      -0.46524240      -3.09466736      -2.34956264       0.00000000
