10
Lattice="16.28999089631971 0.0 0.0 0.0 16.28999089631971 0.0 0.0 0.0 34.383488856416385" Properties=species:S:1:pos:R:3:initial_magmoms:R:1 pbc="T T T"
Si       1.00911663       0.79892676      -1.88827350       0.00000000
Si      -1.54560986      -1.73668667      -0.30601322       0.00000000
Si      -1.58891031       1.62937467       0.69372166       0.00000000
Si       2.11905207      -0.59794074       1.07365942       0.00000000
Si      -1.66525388       1.48462173       3.02193214       0.00000000
Si      -0.43665182      -3.80740373      -0.04841198       0.00000000
Si       1.75910823      -0.82811844       3.37075283       0.00000000
Si      -0.88598215       3.80053845       0.12532789       0.00000000
Si       0.51440562       1.10027547       3.71561942       0.00000000
Si      -3.01271237      -2.09845662       1.46752251       0.00000000
