10
Lattice="16.28999089631971 0.0 0.0 0.0 16.28999089631971 0.0 0.0 0.0 34.383488856416385" Properties=species:S:1:pos:R:3:initial_magmoms:R:1 pbc="T T T"
Si       1.35664749      -1.35645201       1.35763282       0.00000000
Si       1.35558864       1.35918873      -1.35759843       0.00000000
Si      -1.35900954      -1.35692442      -1.35759843       0.00000000
Si      -1.35806472       1.35835794       1.35801103       0.00000000
Si       0.00179190      -2.71236645       2.71426851       0.00000000
Si       2.71477737      -2.71394658      -0.00010315       0.00000000
Si      -2.71415835       0.00066789       2.71536878       0.00000000
Si      -2.71542897      -2.71419093      -0.00017192       0.00000000
Si       2.71542897       0.00348606       2.71474988       0.00000000
Si       0.00133578      -2.71448415      -2.71670974       0.00000000
