10
Lattice="16.28999089631971 0.0 0.0 0.0 16.28999089631971 0.0 0.0 0.0 34.383488856416385" Properties=species:S:1:pos:R:3:initial_magmoms:R:1 pbc="T T T"
Si       1.35609363       1.35769005      -1.35735775       0.00000000
Si       1.35557235      -1.35811359       1.35931761       0.00000000
Si      -1.35902583      -1.35697329      -1.35797665       0.00000000
Si      -1.36260963       1.35856971       1.36234336       0.00000000
Si       2.71595025      -2.71303434      -0.00110027       0.00000000
Si       2.71415835      -0.00066789      -2.71536878       0.00000000
Si      -2.71478226      -2.71489140       0.00000000       0.00000000
Si      -0.00169416       2.71546155      -2.71492180       0.00000000
Si      -0.00127062      -2.71485882      -2.71554070       0.00000000
Si       2.71497285       2.71564074       0.00003438       0.00000000
