10
Lattice="16.28999089631971 0.0 0.0 0.0 16.28999089631971 0.0 0.0 0.0 34.383488856416385" Properties=species:S:1:pos:R:3:initial_magmoms:R:1 pbc="T T T"
Si       1.32812370       0.14734305      -1.90752826       0.00000000
Si      -2.10561282       0.84367539      -0.71170423       0.00000000
Si       0.52137774       1.92116115       1.40429124       0.00000000
Si       0.21888873      -2.54303190       0.18402054       0.00000000
Si      -3.28825053      -1.08333387      -0.19000327       0.00000000
Si       1.87735734       2.44232712      -1.98269061       0.00000000
Si       0.10054188      -1.16035299      -3.47954225       0.00000000
Si      -2.04354792      -3.01172778      -0.53486985       0.00000000
Si       3.37328433      -0.80982477      -1.23505561       0.00000000
Si       2.16158526      -0.75160431       2.92634599       0.00000000
