10
Lattice="16.28999089631971 0.0 0.0 0.0 16.28999089631971 0.0 0.0 0.0 34.383488856416385" Properties=species:S:1:pos:R:3:initial_magmoms:R:1 pbc="T T T"
Si       0.40609341      -0.78237612       2.16378855       0.00000000
Si       1.91710494       0.88459587      -1.06210656       0.00000000
Si      -1.67883111       1.62803889       0.44781081       0.00000000
Si      -0.52137774      -1.92116115      -1.40429124       0.00000000
Si       1.64020752      -2.67276546       1.52205475       0.00000000
Si      -3.47640003       0.29737395      -0.32822497       0.00000000
Si      -2.62699056      -1.07748576      -2.11599547       0.00000000
Si       1.35597960       0.52116597      -3.38698185       0.00000000
Si       3.78027369      -0.26515233      -0.19914928       0.00000000
Si      -1.58255721       2.03038560       2.82584299       0.00000000
