10
Lattice="16.28999089631971 0.0 0.0 0.0 16.28999089631971 0.0 0.0 0.0 34.383488856416385" Properties=species:S:1:pos:R:3:initial_magmoms:R:1 pbc="T T T"
Si      -1.23411411       1.89038934       0.64173379       0.00000000
Si       1.41889158       0.23133429      -1.85598738       0.00000000
Si       1.64683755      -0.28704609       1.66529645       0.00000000
Si      -1.17304290      -2.01896631      -0.46342092       0.00000000
Si       2.39057379      -2.27743974       0.73852337       0.00000000
Si      -1.64020752       2.67276546      -1.52205475       0.00000000
Si       2.94868548      -1.39105197      -1.29178840       0.00000000
Si      -3.00651498      -1.53699408       0.94925989       0.00000000
Si      -3.01018023       0.79443072       1.71078583       0.00000000
Si       2.14006617       2.40761313      -1.72120403       0.00000000
