10
Lattice="16.28999089631971 0.0 0.0 0.0 16.28999089631971 0.0 0.0 0.0 34.383488856416385" Properties=species:S:1:pos:R:3:initial_magmoms:R:1 pbc="T T T"
Si      -1.21780782       2.03908446       0.08252042       0.00000000
Si       2.02255011      -0.31333815      -1.22078645       0.00000000
Si      -1.42886106      -1.55447325      -1.10938389       0.00000000
Si       0.59163651      -0.53092368       2.27598193       0.00000000
Si       3.00473937      -1.94857722       0.18102917       0.00000000
Si      -3.41751168       1.25828847      -0.44732944       0.00000000
Si      -1.19884626       2.65254957       2.39041025       0.00000000
Si       2.75814135       1.82037492      -1.83150632       0.00000000
Si      -0.53084223      -2.54715327       2.77416458       0.00000000
Si      -1.83495447      -0.77209713      -3.27317243       0.00000000
