10
Lattice="16.28999089631971 0.0 0.0 0.0 16.28999089631971 0.0 0.0 0.0 34.383488856416385" Properties=species:S:1:pos:R:3:initial_magmoms:R:1 pbc="T T T"
Si      -1.35324288      -1.34873055       1.40215602       0.00000000
Si       1.36029645       1.36805049       1.40019616       0.00000000
Si      -1.46588823       1.39259952      -1.41645612       0.00000000
Si       1.51459533      -1.50381135      -1.60581642       0.00000000
Si      -2.70282051      -2.69760771       0.01685136       0.00000000
Si       2.72942208       2.71756296       0.02572230       0.00000000
Si       2.74411566      -2.70664866       0.01465081       0.00000000
Si      -2.71909422       2.73259863       0.04548938       0.00000000
Si       0.00161271      -2.70469386       2.76302089       0.00000000
Si      -2.71311579       0.00764001       2.76449938       0.00000000
