10
Lattice="16.28999089631971 0.0 0.0 0.0 16.28999089631971 0.0 0.0 0.0 34.383488856416385" Properties=species:S:1:pos:R:3:initial_magmoms:R:1 pbc="T T T"
Si      -1.29143862      -1.18416897      -1.54667334       0.00000000
Si       0.77162472      -1.71722664       1.45775759       0.00000000
Si       1.45590246       1.44042696      -1.24083204       0.00000000
Si      -1.94883786       1.28238138       0.62811793       0.00000000
Si       2.60553663      -2.57321727       0.06584442       0.00000000
Si      -2.37226383      -2.79624366      -0.11298421       0.00000000
Si      -1.09364544       3.45308904       1.12289661       0.00000000
Si       0.00019548      -2.65054590      -2.78334498       0.00000000
Si       2.69799867       0.08676054      -2.77251417       0.00000000
Si      -0.00521280       2.80034874      -2.75095571       0.00000000
