10
Lattice="16.28999089631971 0.0 0.0 0.0 16.28999089631971 0.0 0.0 0.0 34.383488856416385" Properties=species:S:1:pos:R:3:initial_magmoms:R:1 pbc="T T T"
Si       1.75298319       1.01895579      -1.11942387       0.00000000
Si      -0.38517705      -2.18737233      -0.77307880       0.00000000
Si      -2.00226906       1.06052787      -0.63179696       0.00000000
Si      -0.24193908       0.55126989       2.29073246       0.00000000
Si       2.93667975      -0.96769116      -1.24004122       0.00000000
Si      -3.24612459      -0.71491923       0.39881431       0.00000000
Si      -2.22589818      -0.73897956       2.60014965       0.00000000
Si      -0.83886984       2.82216105       2.33938512       0.00000000
Si      -2.07567180       3.18902814       0.33314181       0.00000000
Si      -2.65297311      -2.52470565      -1.11093115       0.00000000
