10
Lattice="16.28999089631971 0.0 0.0 0.0 16.28999089631971 0.0 0.0 0.0 34.383488856416385" Properties=species:S:1:pos:R:3:initial_magmoms:R:1 pbc="T T T"
Si       1.30741911       1.81842012       0.86182263       0.00000000
Si      -0.53761887      -0.78473817      -2.26484168       0.00000000
Si      -0.61309044      -1.09957500       2.11224767       0.00000000
Si      -2.01443769       0.59873895       1.32878505       0.00000000
Si       3.33883098      -0.60259968      -1.33132943       0.00000000
Si       3.34212156      -1.53912807       0.78913589       0.00000000
Si      -2.74515822      -2.51392167      -0.66466759       0.00000000
Si      -1.62926064       2.78611128       2.10186385       0.00000000
Si       3.31346745       2.05009650      -0.31168650       0.00000000
Si       0.12372255       3.80506707       0.98243998       0.00000000
