10
Lattice="16.28999089631971 0.0 0.0 0.0 16.28999089631971 0.0 0.0 0.0 34.383488856416385" Properties=species:S:1:pos:R:3:initial_magmoms:R:1 pbc="T T T"
Si      -0.97803531       2.11620132      -0.14055978       0.00000000
Si      -1.48905261      -1.85370426      -0.12464022       0.00000000
Si       2.20962447       0.29452320      -0.88221205       0.00000000
Si      -2.55168189      -0.64638720       1.56125195       0.00000000
Si       0.97477731       3.04447068       0.89844107       0.00000000
Si      -2.79432144       2.15068725       1.42481819       0.00000000
Si       3.33301545      -1.57306014       0.95183865       0.00000000
Si      -1.37223702       2.63353914      -2.40935556       0.00000000
Si       0.30998241       1.37021706       3.55924322       0.00000000
Si      -0.00904095      -1.09973790      -3.71995174       0.00000000
