10
Lattice="16.28999089631971 0.0 0.0 0.0 16.28999089631971 0.0 0.0 0.0 34.383488856416385" Properties=species:S:1:pos:R:3:initial_magmoms:R:1 pbc="T T T"
Si       1.33988508       1.35423657      -1.39146619       0.00000000
Si      -1.37958381      -1.35972630      -1.39040030       0.00000000
Si      -1.17561672       1.58254092       1.39535152       0.00000000
Si       1.46111526      -1.35992178       1.51012367       0.00000000
Si       2.69154783       2.71243161      -0.01705422       0.00000000
Si       2.70321147      -2.71358820      -0.02155846       0.00000000
Si       2.69992089      -0.00161271      -2.74927092       0.00000000
Si      -2.75441094      -2.69649999      -0.04401089       0.00000000
Si      -2.74616820       2.71155195      -0.00453862       0.00000000
Si      -0.01645290       2.71010214      -2.75050873       0.00000000
