10
Lattice="16.28999089631971 0.0 0.0 0.0 16.28999089631971 0.0 0.0 0.0 34.383488856416385" Properties=species:S:1:pos:R:3:initial_magmoms:R:1 pbc="T T T"
Si      -0.07340274       2.12850027       0.96493877       0.00000000
Si       2.00226906      -1.06052787       0.63179696       0.00000000
Si      -1.24385553      -1.77544710       1.03061127       0.00000000
Si      -0.54079542       0.67541598      -2.33728773       0.00000000
Si       1.76032998      -0.50925798       2.92252942       0.00000000
Si      -2.40702669       2.34520614       0.92199377       0.00000000
Si       1.61709201      -3.24790020      -0.14128183       0.00000000
Si       1.16339922       1.76163318       2.97118208       0.00000000
Si      -0.64954746      -2.46135384      -2.63171371       0.00000000
Si      -0.65070405      -3.58523352      -0.47913418       0.00000000
