10
Lattice="16.28999089631971 0.0 0.0 0.0 16.28999089631971 0.0 0.0 0.0 34.383488856416385" Properties=species:S:1:pos:R:3:initial_magmoms:R:1 pbc="T T T"
Si       1.53126000       0.37232424       1.71515253       0.00000000
Si      -0.41282118       2.11168314      -0.99526502       0.00000000
Si      -2.09215728      -1.00812294       0.64623803       0.00000000
Si       1.60707366      -1.22629491      -1.45136226       0.00000000
Si       2.85557184       2.02839075       0.66896553       0.00000000
Si       2.38840722      -1.88428059       1.92554522       0.00000000
Si      -3.32895924      -0.64125585      -1.36000528       0.00000000
Si      -1.49522652      -3.27901410       0.59758537       0.00000000
Si       1.73793123       3.02408279      -1.16996763       0.00000000
Si      -0.71666226       1.66297021      -3.32663879       0.00000000
