10
Lattice="16.28999089631971 0.0 0.0 0.0 16.28999089631971 0.0 0.0 0.0 34.383488856416385" Properties=species:S:1:pos:R:3:initial_magmoms:R:1 pbc="T T T"
Si      -0.43041438       1.78548174       1.46281197       0.00000000
Si       2.25481293      -0.50560902       0.47425173       0.00000000
Si      -1.71330075      -1.36070370       0.90590229       0.00000000
Si      -0.68121522       0.10720449      -2.30909325       0.00000000
Si      -3.54245924       0.14757111       0.63726394       0.00000000
Si      -1.85139108      -2.05711749      -2.53361756       0.00000000
Si      -1.84194288      -3.24814455      -0.44574780       0.00000000
Si      -2.72513781       2.07145269       1.68004697       0.00000000
Si       2.41727310      -1.34076474       2.67995377       0.00000000
Si       0.43987887       1.31834970       3.59507084       0.00000000
