10
Lattice="16.28999089631971 0.0 0.0 0.0 16.28999089631971 0.0 0.0 0.0 34.383488856416385" Properties=species:S:1:pos:R:3:initial_magmoms:R:1 pbc="T T T"
Si       1.47129651       1.01758743       1.52111750       0.00000000
Si       1.53404559      -0.91061100      -1.58996218       0.00000000
Si      -1.16662627       1.68518421      -1.34405133       0.00000000
Si      -1.32529250      -1.62265179       1.31005433       0.00000000
Si       2.76723117       2.44296243      -0.02203983       0.00000000
Si       1.07408115      -3.17513996      -1.61760652       0.00000000
Si       0.79122159       3.33244530      -1.52263927       0.00000000
Si       0.00329058       2.27659266       2.97811865       0.00000000
Si      -3.25015541      -1.92760385      -0.29078133       0.00000000
Si      -2.14799777       0.45307377      -3.18721366       0.00000000
