10
Lattice="16.28999089631971 0.0 0.0 0.0 16.28999089631971 0.0 0.0 0.0 34.383488856416385" Properties=species:S:1:pos:R:3:initial_magmoms:R:1 pbc="T T T"
Si      -1.52746443       1.15934464      -1.43509886       0.00000000
Si       1.17157680      -1.56734302      -1.44482939       0.00000000
Si      -1.92075390      -0.88829437       1.30481975       0.00000000
Si       1.91630673       0.88859995       1.50713231       0.00000000
Si       2.58074325       2.58659788      -0.03648090       0.00000000
Si      -0.18467973       2.50231342      -2.81875999       0.00000000
Si      -2.87650449       2.45503984       0.10954586       0.00000000
Si       3.56008176      -0.83232193       1.00564884       0.00000000
Si       2.53816119      -0.21555254      -2.81662821       0.00000000
Si      -2.69558775      -2.69723371      -0.03242365       0.00000000
