10
Lattice="16.28999089631971 0.0 0.0 0.0 16.28999089631971 0.0 0.0 0.0 34.383488856416385" Properties=species:S:1:pos:R:3:initial_magmoms:R:1 pbc="T T T"
Si      -1.40735826       1.27364994      -1.42732819       0.00000000
Si      -0.66443652      -1.69799792       1.54361321       0.00000000
Si       1.30872231      -1.41123528      -1.42939120       0.00000000
Si       1.44158355       1.35451350       1.55203717       0.00000000
Si      -2.58074325      -2.58659788       0.03648090       0.00000000
Si       0.97933851      -3.41891981       1.04212975       0.00000000
Si      -2.69526195       2.59354719       0.02812571       0.00000000
Si      -0.04326624       2.63148660      -2.78107567       0.00000000
Si       2.66776443      -0.08451252      -2.78489224       0.00000000
Si       2.83058298      -2.62888346      -0.18890299       0.00000000
