10
Lattice="16.28999089631971 0.0 0.0 0.0 16.28999089631971 0.0 0.0 0.0 34.383488856416385" Properties=species:S:1:pos:R:3:initial_magmoms:R:1 pbc="T T T"
Si       1.66281804       1.46991186      -0.77634523       0.00000000
Si      -1.68599871       1.09921662       1.22979493       0.00000000
Si       0.32604435      -1.85639930       1.42959750       0.00000000
Si      -0.36354393      -1.14159343      -2.04922270       0.00000000
Si       2.64761370      -1.70503178       0.42690564       0.00000000
Si      -1.64784753      -1.06217805       2.62177687       0.00000000
Si       3.09053880      -0.27970582      -1.43382667       0.00000000
Si      -2.02992948       0.13743873      -3.05741592       0.00000000
Si       1.76774193      -1.15110841      -3.10304284       0.00000000
Si       0.76833414       2.87049348      -2.46385342       0.00000000
