10
Lattice="16.28999089631971 0.0 0.0 0.0 16.28999089631971 0.0 0.0 0.0 34.383488856416385" Properties=species:S:1:pos:R:3:initial_magmoms:R:1 pbc="T T T"
Si      -0.80594775      -0.68079168       2.03918271       0.00000000
Si       0.74373624      -1.99039365      -0.92677308       0.00000000
Si      -1.64683755       0.28704609      -1.66529645       0.00000000
Si       1.55264877       1.78333146       0.26685041       0.00000000
Si       1.30184793      -1.10400588      -2.95708484       0.00000000
Si      -0.22794597       0.51838038      -3.52128383       0.00000000
Si       3.54199986       0.74266110      -0.33321058       0.00000000
Si       0.57045951       3.41857053      -1.13496522       0.00000000
Si      -1.98293283       1.18475541       2.85998582       0.00000000
Si       1.08766701      -1.02861576       3.36043778       0.00000000
