10
Lattice="16.28999089631971 0.0 0.0 0.0 16.28999089631971 0.0 0.0 0.0 34.383488856416385" Properties=species:S:1:pos:R:3:initial_magmoms:R:1 pbc="T T T"
Si       1.34736219      -1.35301482      -1.36210267       0.00000000
Si       1.35496962       1.35702216       1.35660131       0.00000000
Si      -1.35410625       1.35114147      -1.36371870       0.00000000
Si      -1.35943308      -1.35809730       1.35611994       0.00000000
Si       2.71269225      -0.00011403       2.71399344       0.00000000
Si       2.71381626       2.71420722      -0.00292260       0.00000000
Si      -0.00182448       2.71401174       2.71409659       0.00000000
Si       2.71381626      -2.71438641      -0.00216616       0.00000000
Si      -0.00216657      -2.71554300       2.71392468       0.00000000
Si      -2.71756296      -0.00060273       2.71385591       0.00000000
