10
Lattice="16.28999089631971 0.0 0.0 0.0 16.28999089631971 0.0 0.0 0.0 34.383488856416385" Properties=species:S:1:pos:R:3:initial_magmoms:R:1 pbc="T T T"
Si       1.35695700       1.35467640      -1.35687638       0.00000000
Si      -1.35896067       1.35224919       1.35945514       0.00000000
Si      -1.35878148      -1.35993807      -1.35711706       0.00000000
Si       1.35814617      -1.36052451       1.36041788       0.00000000
Si      -2.69389359      -0.01928736       2.71781001       0.00000000
Si      -0.00029322       2.71298547      -2.71433728       0.00000000
Si      -2.71461447       2.71282257       0.00065329       0.00000000
Si       2.71520091       2.71265967      -0.00013753       0.00000000
Si       2.71375110      -0.00231318      -2.71437166       0.00000000
Si      -2.71363707      -2.71585251      -0.00048137       0.00000000
