10
Lattice="16.28999089631971 0.0 0.0 0.0 16.28999089631971 0.0 0.0 0.0 34.383488856416385" Properties=species:S:1:pos:R:3:initial_magmoms:R:1 pbc="T T T"
Si      -1.28790369       1.31989725       1.45545390       0.00000000
Si      -1.35806472      -1.35793440      -1.35495090       0.00000000
Si       1.36409202       1.35783666      -1.35374748       0.00000000
Si       1.40735826      -1.27364994       1.42732819       0.00000000
Si      -2.68794774       2.69907381       0.00364465       0.00000000
Si       2.71608057      -2.68488522      -0.00206301       0.00000000
Si      -2.70084942      -2.70090318       0.02871023       0.00000000
Si      -2.70769122       0.00250866      -2.71464673       0.00000000
Si       0.00591327      -2.71266782      -2.71279002       0.00000000
Si       0.00594585       2.71836117      -2.71416536       0.00000000
