10
Lattice="16.28999089631971 0.0 0.0 0.0 16.28999089631971 0.0 0.0 0.0 34.383488856416385" Properties=species:S:1:pos:R:3:initial_magmoms:R:1 pbc="T T T"
Si       1.28790369      -1.31989725      -1.45545390       0.00000000
Si       1.20529710       1.45650519       1.39738015       0.00000000
Si      -1.49279931      -1.11866688       1.52439283       0.00000000
Si      -1.40004405       1.37917656      -1.45180924       0.00000000
Si      -0.62861481       2.31249582       2.78929333       0.00000000
Si       2.69526195      -2.59354719      -0.02812571       0.00000000
Si       2.65447179       0.22708260       2.73881834       0.00000000
Si       2.65199571       0.03793941      -2.80920138       0.00000000
Si      -2.76198579      -2.72510523       0.11790105       0.00000000
Si      -0.07016103      -2.67783165      -2.81040480       0.00000000
