10
Lattice="16.28999089631971 0.0 0.0 0.0 16.28999089631971 0.0 0.0 0.0 34.383488856416385" Properties=species:S:1:pos:R:3:initial_magmoms:R:1 pbc="T T T"
Si       1.29749850      -1.93132611      -0.12381501       0.00000000
Si       0.76606983       1.59633855       1.55018046       0.00000000
Si      -0.15262101       1.32743952      -1.94916669       0.00000000
Si      -2.09184777      -0.65197467       0.91931186       0.00000000
Si      -1.27902564       2.20564971       2.56012724       0.00000000
Si      -0.56092986      -0.30520944      -3.59163249       0.00000000
Si      -1.79988210       2.93562090      -1.27834445       0.00000000
Si       2.04183747       3.08519568       0.16871987       0.00000000
Si      -2.01461688       0.07193664       3.17084711       0.00000000
Si       0.69198291      -3.28771296       1.73629839       0.00000000
