10
Lattice="16.28999089631971 0.0 0.0 0.0 16.28999089631971 0.0 0.0 0.0 34.383488856416385" Properties=species:S:1:pos:R:3:initial_magmoms:R:1 pbc="T T T"
Si       0.72117459       2.17627884       0.13478335       0.00000000
Si       1.52979390      -1.62238626       0.56419898       0.00000000
Si      -0.20719251      -0.28955475      -2.30541422       0.00000000
Si      -1.41889158      -0.23133429       1.85598738       0.00000000
Si       0.22794597      -0.51838038       3.52128383       0.00000000
Si      -1.14199416       3.32602704      -0.72817393       0.00000000
Si       0.27192897      -2.58734070      -2.54025358       0.00000000
Si       3.50500527      -0.45945945       0.95176989       0.00000000
Si      -2.59193448      -2.25030060       1.39256646       0.00000000
Si       0.97168221      -2.50877403       2.59451075       0.00000000
