10
Lattice="16.28999089631971 0.0 0.0 0.0 16.28999089631971 0.0 0.0 0.0 34.383488856416385" Properties=species:S:1:pos:R:3:initial_magmoms:R:1 pbc="T T T"
Si       1.98935109      -1.04067036      -0.60006098       0.00000000
Si      -0.10568952       0.86985342       2.19191426       0.00000000
Si      -0.98218926       1.63523907      -1.40181562       0.00000000
Si      -1.55264877      -1.78333146      -0.26685041       0.00000000
Si      -2.41310286       1.41765354       2.09495276       0.00000000
Si      -3.00473937       1.94857722      -0.18102917       0.00000000
Si       1.72441053      -1.72441053      -2.83636435       0.00000000
Si      -2.35859652      -2.46412314       1.77233231       0.00000000
Si       1.32677163       2.79290421       2.34880620       0.00000000
Si      -1.05942015       0.91132776      -3.65335088       0.00000000
