10
Lattice="16.28999089631971 0.0 0.0 0.0 16.28999089631971 0.0 0.0 0.0 34.383488856416385" Properties=species:S:1:pos:R:3:initial_magmoms:R:1 pbc="T T T"
Si       1.35830907       1.35689184      -1.35543227       0.00000000
Si      -1.35822762       1.35728280       1.35735775       0.00000000
Si       1.35725022      -1.35830907       1.35746090       0.00000000
Si      -1.35954711      -1.35728280      -1.35801103       0.00000000
Si       2.70353727       0.00667890      -2.71261810       0.00000000
Si       0.00029322      -2.71298547       2.71433728       0.00000000
Si       2.71337643       2.71430496       0.00024068       0.00000000
Si      -2.71432125      -0.00016290       2.71499056       0.00000000
Si       2.71404432      -2.71529865      -0.00003438       0.00000000
Si       2.71549413      -0.00032580       2.71419974       0.00000000
