10
Lattice="16.28999089631971 0.0 0.0 0.0 16.28999089631971 0.0 0.0 0.0 34.383488856416385" Properties=species:S:1:pos:R:3:initial_magmoms:R:1 pbc="T T T"
Si       1.35099486       1.35092970      -1.36825732       0.00000000
Si       1.39479867      -1.31240385       1.37640621       0.00000000
Si      -1.36287027      -1.36576989      -1.36918567       0.00000000
Si      -1.24209621       1.35366642       1.53168213       0.00000000
Si      -2.70321147       2.71358820       0.02155846       0.00000000
Si       2.71021617       2.72251512       0.01086519       0.00000000
Si      -2.69780319      -2.73730644      -0.01083081       0.00000000
Si      -0.00329058       2.71197549      -2.72771246       0.00000000
Si       2.71129131      -0.00535941      -2.72877835       0.00000000
Si       2.72031597      -2.72394864       0.00955862       0.00000000
