10
Lattice="16.28999089631971 0.0 0.0 0.0 16.28999089631971 0.0 0.0 0.0 34.383488856416385" Properties=species:S:1:pos:R:3:initial_magmoms:R:1 pbc="T T T"
Si      -0.73559124      -2.13371307       0.61071987       0.00000000
Si       2.04509547      -0.60931116      -1.00994678       0.00000000
Si      -0.40736403       1.59668064       1.76005739       0.00000000
Si      -1.59433488       0.26865468      -1.80558116       0.00000000
Si      -0.81282213      -2.85762438      -1.64081539       0.00000000
Si       1.27902564      -2.20564971      -2.56012724       0.00000000
Si      -2.55779064       2.28335301      -1.15263834       0.00000000
Si      -2.72139111       2.08616256       1.17993885       0.00000000
Si       0.65454849       3.51166788       0.82571995       0.00000000
Si      -2.75814135      -1.82037492       1.83150632       0.00000000
