10
Lattice="16.28999089631971 0.0 0.0 0.0 16.28999089631971 0.0 0.0 0.0 34.383488856416385" Properties=species:S:1:pos:R:3:initial_magmoms:R:1 pbc="T T T"
Si      -1.35456237       1.35850455      -1.35519159       0.00000000
Si      -1.35513252      -1.35707103       1.35642939       0.00000000
Si       1.35993807       1.35843939       1.35646378       0.00000000
Si       1.36013355      -1.35625653      -1.36426883       0.00000000
Si      -0.01145187       2.70006092      -2.70492995       0.00000000
Si      -2.71008585       2.71442864      -0.00044699       0.00000000
Si      -2.71228500       0.00003258       2.71382153       0.00000000
Si       0.00276930      -2.71443528       2.71392468       0.00000000
Si       0.00247608       2.71525647       2.71392468       0.00000000
Si      -2.71327869      -2.71666701       0.00003438       0.00000000
