10
Lattice="16.28999089631971 0.0 0.0 0.0 16.28999089631971 0.0 0.0 0.0 34.383488856416385" Properties=species:S:1:pos:R:3:initial_magmoms:R:1 pbc="T T T"
Si      -1.40035356       1.39454359       1.35281913       0.00000000
Si       1.89954432      -0.15851799       1.49863958       0.00000000
Si      -0.49853916      -2.26991376      -0.70479315       0.00000000
Si      -2.02295736       0.23949558      -2.85651308       0.00000000
Si      -0.18399555      -3.07975482       1.86688695       0.00000000
Si       0.92338236      -1.49472153       3.22809566       0.00000000
Si       1.81410327       2.01638990      -2.65420052       0.00000000
Si       2.61462645       2.02285866       1.87978077       0.00000000
Si       3.93165666      -0.81738333       0.52087576       0.00000000
Si      -2.71060713      -2.49924438      -1.71525568       0.00000000
