10
Lattice="16.28999089631971 0.0 0.0 0.0 16.28999089631971 0.0 0.0 0.0 34.383488856416385" Properties=species:S:1:pos:R:3:initial_magmoms:R:1 pbc="T T T"
Si      -2.28887532       0.23159656       0.16211824       0.00000000
Si       0.14535567       1.00232533      -2.09447139       0.00000000
Si       1.58346945      -1.67427710       0.37392065       0.00000000
Si       1.03669560       1.43335710       1.55042115       0.00000000
Si       3.22351407      -0.11970869      -0.48308829       0.00000000
Si      -2.14865100       2.19224304       1.42763764       0.00000000
Si       2.21570064       0.05283336      -2.64502013       0.00000000
Si       1.09090872       0.01730813       3.41232249       0.00000000
Si       3.03340977       1.98260703       0.52077261       0.00000000
Si      -0.17343963       3.35516985       1.81520854       0.00000000
