10
Lattice="16.28999089631971 0.0 0.0 0.0 16.28999089631971 0.0 0.0 0.0 34.383488856416385" Properties=species:S:1:pos:R:3:initial_magmoms:R:1 pbc="T T T"
Si       0.44292510       1.42532597      -1.86073231       0.00000000
Si       0.90104877      -2.21289959      -0.49443485       0.00000000
Si      -2.32156935      -0.15136751       1.00269186       0.00000000
Si       1.50818751       1.24414207       1.61155502       0.00000000
Si      -2.64761370       1.70503178      -0.42690564       0.00000000
Si       1.57592101      -2.42766695       1.81885319       0.00000000
Si       3.11511131      -0.47933408       1.49588890       0.00000000
Si      -0.98479566       3.17494364      -1.20325086       0.00000000
Si      -0.87987177       0.55392337      -3.52994847       0.00000000
Si       3.62407607      -0.30149615      -0.83431582       0.00000000
