10
Lattice="16.28999089631971 0.0 0.0 0.0 16.28999089631971 0.0 0.0 0.0 34.383488856416385" Properties=species:S:1:pos:R:3:initial_magmoms:R:1 pbc="T T T"
Si       1.13256225       1.41216381       1.55894967       0.00000000
Si       1.91216907      -1.48062254      -0.28407654       0.00000000
Si      -1.54735452      -1.21321893       1.53939577       0.00000000
Si      -0.49583502       2.09235276      -1.68891792       0.00000000
Si       2.24383347       3.02298417       0.14740210       0.00000000
Si       2.52512334      -1.39010389      -2.51178403       0.00000000
Si       2.46299537       0.00899208       2.97494162       0.00000000
Si      -0.27098415      -2.70895274       2.98038109       0.00000000
Si      -0.25295112       2.72313414       2.99195801       0.00000000
Si      -3.49125651      -2.07546655       0.45825243       0.00000000
