10
Lattice="16.28999089631971 0.0 0.0 0.0 16.28999089631971 0.0 0.0 0.0 34.383488856416385" Properties=species:S:1:pos:R:3:initial_magmoms:R:1 pbc="T T T"
Si      -1.35534429      -1.35801585       1.35687638       0.00000000
Si      -1.35772263       1.35713619      -1.35739213       0.00000000
Si       1.35860229      -1.35757602      -1.35725460       0.00000000
Si       1.35876519       1.35910728       1.35680761       0.00000000
Si       2.71556465       0.00066789      -2.71110523       0.00000000
Si      -2.71269225       0.00011403      -2.71399344       0.00000000
Si       2.71158453      -0.00076563       2.71684727       0.00000000
Si      -2.71451673       2.71412577       0.00010315       0.00000000
Si       2.71467175       2.71433754      -0.00006877       0.00000000
Si       0.00206883       2.71340901       2.71574700       0.00000000
