10
Lattice="16.28999089631971 0.0 0.0 0.0 16.28999089631971 0.0 0.0 0.0 34.383488856416385" Properties=species:S:1:pos:R:3:initial_magmoms:R:1 pbc="T T T"
Si      -0.48156498       1.89157851      -1.31437836       0.00000000
Si       1.73355478      -1.48165695      -0.76063197       0.00000000
Si      -1.74718395      -1.35345465      -0.94833154       0.00000000
Si       0.28707867       1.24009254       2.09330235       0.00000000
Si      -2.33870643       2.24285607       0.17305220       0.00000000
Si      -1.69635915       0.46786509      -3.12951814       0.00000000
Si       1.73857536       2.98175418       1.35746090       0.00000000
Si       1.03062662      -3.65282073      -0.19223819       0.00000000
Si       1.16991752       3.54357999      -0.87000590       0.00000000
Si      -3.62691963       0.53683695       1.35632624       0.00000000
