10
Lattice="16.28999089631971 0.0 0.0 0.0 16.28999089631971 0.0 0.0 0.0 34.383488856416385" Properties=species:S:1:pos:R:3:initial_magmoms:R:1 pbc="T T T"
Si       1.70691765      -0.97976205       1.23465332       0.00000000
Si      -0.99474885       1.72566486       1.21909822       0.00000000
Si       1.52982648       1.10912094      -1.43412546       0.00000000
Si      -1.64221119      -1.86129540      -0.12758688       0.00000000
Si      -0.65598201      -2.31818103      -2.24588746       0.00000000
Si      -0.05141124       1.54207656      -3.08236945       0.00000000
Si       0.36580824      -2.35393758       2.57706800       0.00000000
Si      -2.36952711       0.37813977       2.57149787       0.00000000
Si      -1.65713283      -0.20051361      -3.38246871       0.00000000
Si       3.00501371      -2.28589425      -0.17860513       0.00000000
