10
Lattice="16.28999089631971 0.0 0.0 0.0 16.28999089631971 0.0 0.0 0.0 34.383488856416385" Properties=species:S:1:pos:R:3:initial_magmoms:R:1 pbc="T T T"
Si      -1.35666378      -1.35697329       1.35694515       0.00000000
Si       1.35759231      -1.35726651      -1.35722021       0.00000000
Si       1.35731538       1.35899325       1.35708268       0.00000000
Si      -1.35878148       1.35765747      -1.35701391       0.00000000
Si      -2.71384884       0.00024435      -2.71268687       0.00000000
Si       2.71428079      -2.71474479       0.00003438       0.00000000
Si       2.71409864      -0.00149868      -2.71502495       0.00000000
Si      -0.00294849       2.71529865       2.71389029       0.00000000
Si       2.71207102      -0.00311139       2.71746618       0.00000000
Si      -2.71490769      -2.71495656       0.00020630       0.00000000
