10
Lattice="16.28999089631971 0.0 0.0 0.0 16.28999089631971 0.0 0.0 0.0 34.383488856416385" Properties=species:S:1:pos:R:3:initial_magmoms:R:1 pbc="T T T"
Si       0.90260123       1.72818981      -1.29591442       0.00000000
Si      -1.80708228      -0.92341494      -1.34174764       0.00000000
Si      -0.11780928       2.21255667       1.29529552       0.00000000
Si       1.89044865      -1.79263305       0.16376865       0.00000000
Si       2.17831739       0.35748405      -2.67696240       0.00000000
Si      -0.55682478      -2.36240838      -2.68181048       0.00000000
Si       2.83264271      -0.19953621       2.34447388       0.00000000
Si      -3.09567015      -2.21429970       0.09066931       0.00000000
Si       0.89980635      -3.57730029      -1.21115907       0.00000000
Si       1.46825910       3.66055848      -0.06684154       0.00000000
