10
Lattice="16.28999089631971 0.0 0.0 0.0 16.28999089631971 0.0 0.0 0.0 34.383488856416385" Properties=species:S:1:pos:R:3:initial_magmoms:R:1 pbc="T T T"
Si       1.21955085       0.01503567      -2.09873495       0.00000000
Si      -0.27430731       1.93582215      -1.52147023       0.00000000
Si      -2.40573652      -0.36004158      -0.48704239       0.00000000
Si       2.15590005      -0.63513081       1.07218093       0.00000000
Si       0.05807385      -0.18262719       2.72870958       0.00000000
Si      -2.27802781      -0.04618215       2.05149201       0.00000000
Si      -0.38292903      -3.04779384       0.03789063       0.00000000
Si       0.61998111       3.26407617       0.57520171       0.00000000
Si      -1.68107424      -2.32914420      -1.80197089       0.00000000
Si       0.61882452       2.14019649       2.72778123       0.00000000
