10
Lattice="16.28999089631971 0.0 0.0 0.0 16.28999089631971 0.0 0.0 0.0 34.383488856416385" Properties=species:S:1:pos:R:3:initial_magmoms:R:1 pbc="T T T"
Si       1.35562122       1.35462753      -1.35825172       0.00000000
Si      -1.35798327       1.35718590       1.35722021       0.00000000
Si       1.35750305      -1.35799956       1.35728898       0.00000000
Si      -1.35868374      -1.35839052      -1.35845802       0.00000000
Si      -2.71324611       0.00050499       2.71426851       0.00000000
Si       0.00004887      -2.71420722       2.71423413       0.00000000
Si       2.71159823       0.00786807      -2.71753494       0.00000000
Si       2.71498167       2.71436753      -0.00075644       0.00000000
Si       0.00340461      -2.71552671      -2.71409659       0.00000000
Si      -0.00013032       2.71562838       2.71433728       0.00000000
