10
Lattice="16.28999089631971 0.0 0.0 0.0 16.28999089631971 0.0 0.0 0.0 34.383488856416385" Properties=species:S:1:pos:R:3:initial_magmoms:R:1 pbc="T T T"
Si      -1.54144125      -1.72981881       0.00983368       0.00000000
Si      -0.17383059       1.62543249       1.64349730       0.00000000
Si      -0.37113507       1.17129987      -1.98678225       0.00000000
Si       2.28184034      -0.50484339       0.39300350       0.00000000
Si       1.27016388       0.13771566      -3.30339554       0.00000000
Si       1.46621403       3.18000089       0.78648836       0.00000000
Si      -0.58088511      -3.26220282       1.51720668       0.00000000
Si       0.45840060       3.35254294      -1.37544347       0.00000000
Si       2.59015140      -2.57504175      -0.59954523       0.00000000
Si       2.51456580      -0.91882116       2.69821141       0.00000000
