10
Lattice="16.28999089631971 0.0 0.0 0.0 16.28999089631971 0.0 0.0 0.0 34.383488856416385" Properties=species:S:1:pos:R:3:initial_magmoms:R:1 pbc="T T T"
Si      -1.28358684      -1.82759139      -0.73408790       0.00000000
Si       1.90570587      -0.01247814      -1.38266401       0.00000000
Si       0.67487224      -0.21476736       2.31328804       0.00000000
Si      -0.90104877       2.21289959       0.49443485       0.00000000
Si       2.72302730       1.91140344      -0.33988098       0.00000000
Si       2.21406254       1.73356551       1.99032375       0.00000000
Si      -1.75974354      -1.30012119       2.70814825       0.00000000
Si      -3.12235317      -1.86147459       0.74268377       0.00000000
Si      -1.90736352      -1.41004611      -3.02592063       0.00000000
Si      -0.00224802      -3.83945526      -0.32334251       0.00000000
