10
Lattice="16.28999089631971 0.0 0.0 0.0 16.28999089631971 0.0 0.0 0.0 34.383488856416385" Properties=species:S:1:pos:R:3:initial_magmoms:R:1 pbc="T T T"
Si       0.86726331      -1.97314254      -1.00833076       0.00000000
Si      -0.52809411       2.01881970      -1.19764635       0.00000000
Si       1.41766983       0.64453014       1.84419384       0.00000000
Si      -2.27920625      -0.86900634       0.35181205       0.00000000
Si      -2.20262696       2.81307123       0.35016165       0.00000000
Si       2.89768149       1.39849650      -1.75111768       0.00000000
Si       0.29458836      -1.91974392      -3.26199779       0.00000000
Si      -3.69365066       1.01498103      -0.08895014       0.00000000
Si      -3.06536165      -1.55768238      -1.80286486       0.00000000
Si       1.40584329       3.24433269      -1.79217159       0.00000000
