10
Lattice="16.28999089631971 0.0 0.0 0.0 16.28999089631971 0.0 0.0 0.0 34.383488856416385" Properties=species:S:1:pos:R:3:initial_magmoms:R:1 pbc="T T T"
Si       0.82156986       1.84521717      -1.29199955       0.00000000
Si      -1.35987291       1.32317154       1.46697925       0.00000000
Si       1.37474568      -1.37036367       1.44494973       0.00000000
Si      -1.38188070      -1.42822575      -1.38583215       0.00000000
Si      -1.12770783       3.19929084      -1.26645261       0.00000000
Si       2.61167796       2.71984356       0.01164226       0.00000000
Si      -2.95538719       2.40632622       0.07686089       0.00000000
Si      -2.77318679      -2.67752214       0.08640919       0.00000000
Si      -2.04009444      -0.17138709      -3.28999082       0.00000000
Si       2.82895398      -2.68056837      -0.00538446       0.00000000
