10
Lattice="16.28999089631971 0.0 0.0 0.0 16.28999089631971 0.0 0.0 0.0 34.383488856416385" Properties=species:S:1:pos:R:3:initial_magmoms:R:1 pbc="T T T"
Si       1.36059792      -1.35311256      -1.35488214       0.00000000
Si      -1.35342752       1.35917244      -1.35622309       0.00000000
Si      -1.35650633      -1.35576783       1.35780473       0.00000000
Si       1.35774391       1.35889551       1.35804542       0.00000000
Si      -0.00627453      -2.70637173      -2.69169230       0.00000000
Si       0.01432975       2.68794774      -2.71021126       0.00000000
Si      -2.70794102      -0.00094482      -2.70724740       0.00000000
Si      -2.71336559      -2.71326240      -0.00178794       0.00000000
Si       2.71455104      -2.71373481       0.00171918       0.00000000
Si       0.00018215      -2.71324611       2.71505933       0.00000000
