10
Lattice="10.86 0.0 0.0 0.0 10.86 0.0 0.0 0.0 10.86" Properties=species:S:1:pos:R:3:initial_magmoms:R:1 pbc="T T T"
Si       1.35750000       1.35750000       1.35750000       0.00000000
Si      -1.35750000       1.35750000      -1.35750000       0.00000000
Si      -1.35750000      -1.35750000       1.35750000       0.00000000
Si       1.35750000      -1.35750000      -1.35750000       0.00000000
Si       2.59258608      -2.70710478      -0.14948790       0.00000000
Si      -0.05573352      -2.66533722      -2.65114320       0.00000000
Si       0.06951486       2.57112672       2.75815764       0.00000000
Si      -2.88385128       2.47073688      -0.24493644       0.00000000
Si      -0.10348494       2.65758318      -2.74497360       0.00000000
Si      -0.07149138      -2.72022366       2.69004372       0.00000000
