10
Lattice="10.86 0.0 0.0 0.0 10.86 0.0 0.0 0.0 10.86" Properties=species:S:1:pos:R:3:initial_magmoms:R:1 pbc="T T T"
Si       1.42033596       1.23467340       1.28706204       0.00000000
Si      -1.29466404      -1.48032660       1.28706204       0.00000000
Si       1.42033596      -1.48032660      -1.42793796       0.00000000
Si      -1.96460658       3.03679266      -0.13709664       0.00000000
Si       0.02886588       2.51256960       2.61967092       0.00000000
Si       0.00695040       2.52160512      -2.73016056       0.00000000
Si      -2.58264918      -0.26669988       2.68771968       0.00000000
Si       2.77783596       2.59217340      -0.07043796       0.00000000
Si       2.77783596      -0.12282660       2.64456204       0.00000000
Si       0.06283596      -2.83782660       2.64456204       0.00000000
