10
Lattice="10.86 0.0 0.0 0.0 10.86 0.0 0.0 0.0 10.86" Properties=species:S:1:pos:R:3:initial_magmoms:R:1 pbc="T T T"
Si      -1.28600862       1.36272366      -1.33254372       0.00000000
Si      -1.28600862      -1.35227634       1.38245628       0.00000000
Si       1.42899138       1.36272366       1.38245628       0.00000000
Si       0.75904884      -2.26515708      -2.75670240       0.00000000
Si      -2.64350862       2.72022366       0.02495628       0.00000000
Si      -2.64350862       0.00522366       2.73995628       0.00000000
Si       0.07149138       2.72022366      -2.69004372       0.00000000
Si       0.07149138      -2.70977634       2.73995628       0.00000000
Si       0.07149138       2.72022366       2.73995628       0.00000000
Si      -2.68888170      -0.13761792      -2.77532730       0.00000000
