10
Lattice="10.86 0.0 0.0 0.0 10.86 0.0 0.0 0.0 10.86" Properties=species:S:1:pos:R:3:initial_magmoms:R:1 pbc="T T T"
Si      -1.32352992      -1.27789620       1.38239112       0.00000000
Si       1.39147008      -1.27789620      -1.33260888       0.00000000
Si       1.39147008       1.43710380       1.38239112       0.00000000
Si      -1.99347246       0.52422306      -2.75676756       0.00000000
Si      -0.02886588      -2.51256960      -2.61967092       0.00000000
Si       0.03397008      -2.63539620       2.73989112       0.00000000
Si       2.74897008      -2.63539620       0.02489112       0.00000000
Si      -2.61151506      -2.77926948       0.06804876       0.00000000
Si      -2.68102992       0.07960380       2.73989112       0.00000000
Si       2.74897008       0.07960380      -2.69010888       0.00000000
