10
Lattice="10.86 0.0 0.0 0.0 10.86 0.0 0.0 0.0 10.86" Properties=species:S:1:pos:R:3:initial_magmoms:R:1 pbc="T T T"
Si      -1.23508608       1.34960478      -1.20801210       0.00000000
Si       1.47991392      -1.36539522      -1.20801210       0.00000000
Si       1.47991392       1.34960478       1.50698790       0.00000000
Si      -1.90502862      -2.27827596       0.08282922       0.00000000
Si      -2.64831960       0.04176756      -2.50165530       0.00000000
Si       0.12241392       2.70710478      -2.56551210       0.00000000
Si      -2.59258608       2.70710478       0.14948790       0.00000000
Si       0.06652836      -2.79346350      -2.51023470       0.00000000
Si       2.83741392      -0.00789522      -2.56551210       0.00000000
Si      -2.66407746      -0.01311888       2.83953162       0.00000000
