10
Lattice="10.86 0.0 0.0 0.0 10.86 0.0 0.0 0.0 10.86" Properties=species:S:1:pos:R:3:initial_magmoms:R:1 pbc="T T T"
Si       1.25401506      -1.41491682       1.32752640       0.00000000
Si      -1.35750000      -1.35750000      -1.35750000       0.00000000
Si       1.35750000       1.35750000      -1.35750000       0.00000000
Si      -1.44727962       1.44912582       1.21306200       0.00000000
Si       0.05722134       2.52846864       2.68872966       0.00000000
Si       2.71500000       2.71500000       0.00000000       0.00000000
Si       2.71500000       0.00000000      -2.71500000       0.00000000
Si       0.00000000      -2.71500000      -2.71500000       0.00000000
Si      -2.71500000       0.00000000      -2.71500000       0.00000000
Si       0.00000000      -2.71500000       2.71500000       0.00000000
