10
Lattice="10.86 0.0 0.0 0.0 10.86 0.0 0.0 0.0 10.86" Properties=species:S:1:pos:R:3:initial_magmoms:R:1 pbc="T T T"
Si       1.41428694      -1.23314214       1.25701242       0.00000000
Si      -1.30071306      -1.23314214      -1.45798758       0.00000000
Si      -1.30071306       1.48185786       1.25701242       0.00000000
Si       0.05678694      -2.59064214       2.61451242       0.00000000
Si      -2.65821306      -2.59064214      -0.10048758       0.00000000
Si      -2.65821306       0.12435786       2.61451242       0.00000000
Si       0.11875410       2.63263776      -2.65872348       0.00000000
Si       2.77178694      -2.59064214      -0.10048758       0.00000000
Si       2.77178694       0.12435786       2.61451242       0.00000000
Si       0.05678694      -2.59064214      -2.81548758       0.00000000
