10
Lattice="10.86 0.0 0.0 0.0 10.86 0.0 0.0 0.0 10.86" Properties=species:S:1:pos:R:3:initial_magmoms:R:1 pbc="T T T"
Si      -1.36176798       1.22910222      -1.20363552       0.00000000
Si       1.15109484       1.42507092       1.25641512       0.00000000
Si       1.35323202      -1.48589778      -1.20363552       0.00000000
Si      -1.36176798      -1.48589778       1.51136448       0.00000000
Si      -0.00426798       2.58660222      -2.56113552       0.00000000
Si       2.71073202      -0.12839778      -2.56113552       0.00000000
Si      -2.71926798      -0.12839778      -2.56113552       0.00000000
Si      -2.71926798       2.58660222       0.15386448       0.00000000
Si      -0.21089034       2.56276452       2.80791816       0.00000000
Si      -0.00426798      -2.84339778      -2.56113552       0.00000000
