10
Lattice="10.86 0.0 0.0 0.0 10.86 0.0 0.0 0.0 10.86" Properties=species:S:1:pos:R:3:initial_magmoms:R:1 pbc="T T T"
Si       1.54000230      -0.91708356      -1.28790912       0.00000000
Si      -1.44424968       1.46202750      -1.19261262       0.00000000
Si      -1.44424968      -1.25297250       1.52238738       0.00000000
Si       1.27075032       1.46202750       1.52238738       0.00000000
Si       0.02898534      -2.55833364      -2.44368462       0.00000000
Si       2.58664566      -2.61989898       0.27319416       0.00000000
Si      -2.80174968       0.10452750      -2.55011262       0.00000000
Si      -2.80174968      -2.61047250       0.16488738       0.00000000
Si      -0.29337204       2.79568980      -2.61105894       0.00000000
Si      -0.08674968      -2.61047250       2.87988738       0.00000000
