10
Lattice="10.86 0.0 0.0 0.0 10.86 0.0 0.0 0.0 10.86" Properties=species:S:1:pos:R:3:initial_magmoms:R:1 pbc="T T T"
Si       1.13763930      -1.38491064      -1.23476028       0.00000000
Si      -1.57736070       1.33008936      -1.23476028       0.00000000
Si       1.24395870       0.68843712       1.96747362       0.00000000
Si      -1.57736070      -1.38491064       1.48023972       0.00000000
Si       2.49513930      -0.02741064      -2.59226028       0.00000000
Si       2.31476556      -2.75729970       0.12863670       0.00000000
Si      -0.00418110       2.50587984       2.76517320       0.00000000
Si      -0.21986070       2.68758936      -2.59226028       0.00000000
Si      -0.21986070      -2.74241064      -2.59226028       0.00000000
Si      -2.93486070      -0.02741064      -2.59226028       0.00000000
