10
Lattice="10.86 0.0 0.0 0.0 10.86 0.0 0.0 0.0 10.86" Properties=species:S:1:pos:R:3:initial_magmoms:R:1 pbc="T T T"
Si       1.13245908       1.18086210       1.49404278       0.00000000
Si       1.13245908      -1.53413790      -1.22095722       0.00000000
Si      -1.58254092       1.18086210      -1.22095722       0.00000000
Si       2.48995908       2.53836210       0.13654278       0.00000000
Si       2.48995908      -0.17663790      -2.57845722       0.00000000
Si      -0.22504092       2.53836210      -2.57845722       0.00000000
Si       2.48995908      -0.17663790       2.85154278       0.00000000
Si       2.48995908      -2.89163790       0.13654278       0.00000000
Si      -0.22504092      -2.89163790      -2.57845722       0.00000000
Si      -2.94004092      -0.17663790      -2.57845722       0.00000000
