10
Lattice="10.86 0.0 0.0 0.0 10.86 0.0 0.0 0.0 10.86" Properties=species:S:1:pos:R:3:initial_magmoms:R:1 pbc="T T T"
Si      -1.17638778       1.12796304      -1.49775690       0.00000000
Si      -1.17638778      -1.58703696       1.21724310       0.00000000
Si       1.93698960       1.38874422       0.91229430       0.00000000
Si       1.53861222      -1.58703696      -1.49775690       0.00000000
Si       1.40297082       2.92347942      -1.12580190       0.00000000
Si      -2.53388778       2.48546304      -0.14025690       0.00000000
Si       0.19422024       2.35776030       2.71381626       0.00000000
Si      -2.53388778      -0.22953696       2.57474310       0.00000000
Si      -0.02873556       2.51556696      -2.82395838       0.00000000
Si       2.82564168      -0.05845938       2.55531456       0.00000000
