10
Lattice="10.86 0.0 0.0 0.0 10.86 0.0 0.0 0.0 10.86" Properties=species:S:1:pos:R:3:initial_magmoms:R:1 pbc="T T T"
Si       1.42797054       1.18642242       1.37692854       0.00000000
Si      -0.88865208       1.44720360      -1.64302026       0.00000000
Si      -1.28702946      -1.52857758       1.37692854       0.00000000
Si       1.42797054      -1.52857758      -1.33807146       0.00000000
Si      -2.63142144       2.41621968       0.15850170       0.00000000
Si       0.07047054       2.54392242       2.73442854       0.00000000
Si      -2.64452946      -0.17107758       2.73442854       0.00000000
Si      -2.82564168       0.05845938      -2.55531456       0.00000000
Si       2.78547054      -0.17107758       2.73442854       0.00000000
Si      -2.64452946      -2.88607758       0.01942854       0.00000000
