10
Lattice="10.86 0.0 0.0 0.0 10.86 0.0 0.0 0.0 10.86" Properties=species:S:1:pos:R:3:initial_magmoms:R:1 pbc="T T T"
Si       1.68781776       1.48992684       0.88543752       0.00000000
Si      -1.02718224       1.48992684      -1.82956248       0.00000000
Si      -1.16282364      -2.14455678       1.25739252       0.00000000
Si       1.68781776      -1.22507316      -1.82956248       0.00000000
Si      -2.32147704       0.11914506       2.12730024       0.00000000
Si       0.33031776       2.84742684       2.24293752       0.00000000
Si      -2.59453002      -2.55246924      -0.44076396       0.00000000
Si      -2.38468224       2.84742684      -0.47206248       0.00000000
Si      -2.38468224       0.13242684      -3.18706248       0.00000000
Si      -1.02718224       1.48992684       3.60043752       0.00000000
