10
Lattice="10.86 0.0 0.0 0.0 10.86 0.0 0.0 0.0 10.86" Properties=species:S:1:pos:R:3:initial_magmoms:R:1 pbc="T T T"
Si      -1.37060802      -1.22979726       1.21842684       0.00000000
Si       1.34439198       1.48520274       1.21842684       0.00000000
Si      -1.37060802       1.48520274      -1.49657316       0.00000000
Si       1.74276936      -0.96901608      -1.80152196       0.00000000
Si       2.63142144      -2.41621968      -0.15850170       0.00000000
Si      -0.19422024      -2.35776030      -2.71381626       0.00000000
Si      -0.01310802      -2.58729726       2.57592684       0.00000000
Si       2.70189198       0.12770274       2.57592684       0.00000000
Si      -2.72810802       0.12770274       2.57592684       0.00000000
Si      -2.72810802      -2.58729726      -0.13907316       0.00000000
