10
Lattice="16.290000149 0.0 0.0 0.0 16.290000149 0.0 0.0 0.0 29.1751946751" Properties=species:S:1:pos:R:3:initial_magmoms:R:1 pbc="T T T"
Si      -0.44486361       0.24838992      -2.26176846       0.00000000
Si       0.80751160       1.86908204       1.15927986       0.00000000
Si      -1.88164163      -0.80052319       1.17576385       0.00000000
Si       1.63229059      -1.73162702       0.05120013       0.00000000
Si       2.18450531       0.60372370       2.57136512       0.00000000
Si      -0.67201138      -2.19473543       2.61127387       0.00000000
Si      -2.14436675       1.89506459      -2.21943525       0.00000000
Si      -0.49529745      -2.02271303      -2.99812119       0.00000000
Si       1.70207696      -2.40332888      -2.18850954       0.00000000
Si       0.64355275      -3.51576322       1.20738100       0.00000000
