10
Lattice="16.290000149 0.0 0.0 0.0 16.290000149 0.0 0.0 0.0 29.1751946751" Properties=species:S:1:pos:R:3:initial_magmoms:R:1 pbc="T T T"
Si       1.32636439       1.38293956      -1.37533910       0.00000000
Si       1.34897491      -1.36085032       1.37699625       0.00000000
Si      -1.36322866       1.34804638       1.39048103       0.00000000
Si      -1.39711186      -1.37528326      -1.33831578       0.00000000
Si       2.53371404      -0.09073530      -2.79745479       0.00000000
Si      -2.83724562       0.05198139      -2.54844450       0.00000000
Si      -2.64793952      -2.74466955       0.09091282       0.00000000
Si       2.72065808       0.04535136       2.68934902       0.00000000
Si      -0.06864606       2.81849583      -2.59217812       0.00000000
Si       2.63443511       2.82968706      -0.00532739       0.00000000
