10
Lattice="16.290000149 0.0 0.0 0.0 16.290000149 0.0 0.0 0.0 29.1751946751" Properties=species:S:1:pos:R:3:initial_magmoms:R:1 pbc="T T T"
Si       1.13736781      -0.07996761      -0.99656630       0.00000000
H        0.67546486       0.92359414       1.62374546       0.00000000
H       -0.92608651       1.74785186       0.45746705       0.00000000
Si      -2.28139823       1.16826994       0.18362868       0.00000000
Si      -2.73114884      -1.04184325       0.80363074       0.00000000
Si       0.14358006       0.64641979       3.00810845       0.00000000
Si       1.35731539      -2.21656403      -1.91126700       0.00000000
Si       3.19885104       0.61776568      -0.09575299       0.00000000
Si       0.90899830       1.43467660      -2.83159852       0.00000000
H        0.33971166      -3.24087924       1.12129026       0.00000000
