10
Lattice="16.290000149 0.0 0.0 0.0 16.290000149 0.0 0.0 0.0 29.1751946751" Properties=species:S:1:pos:R:3:initial_magmoms:R:1 pbc="T T T"
Si      -1.30391677       1.38052864      -1.37511445       0.00000000
Si       1.37909349       1.36156708       1.33383155       0.00000000
Si       1.39637067      -1.33737317      -1.34803987       0.00000000
Si      -1.38271150      -1.33740575       1.38141629       0.00000000
Si       0.08643042      -2.63051835       2.65342561       0.00000000
Si      -2.67714749      -0.00337203      -2.68467224       0.00000000
Si      -2.62741412       2.75146248      -0.00180886       0.00000000
Si       0.02585223      -2.70954830      -2.67819535       0.00000000
Si      -2.61487082       0.09293445       2.79685086       0.00000000
Si       2.72635958       0.02577078       2.70964621       0.00000000
