10
Lattice="16.290000149 0.0 0.0 0.0 16.290000149 0.0 0.0 0.0 29.1751946751" Properties=species:S:1:pos:R:3:initial_magmoms:R:1 pbc="T T T"
H       -0.17523153       1.38793082       0.61034507       0.00000000
Si       0.83691505      -1.24344178       1.71350586       0.00000000
Si       1.89809453       0.01566772      -1.33651567       0.00000000
Si      -1.90505036      -0.53669686      -1.28630516       0.00000000
Si       0.64327582       1.12369073      -2.93753365       0.00000000
Si      -2.63850761       1.65818192      -0.89693301       0.00000000
Si      -0.68929507       2.66757549      -1.77633173       0.00000000
Si       1.87685237       0.61065020       2.66547788       0.00000000
Si       2.33570909      -2.27246479      -1.03560271       0.00000000
Si      -0.99380404      -2.26445011       2.65980914       0.00000000
