10
Lattice="16.290000149 0.0 0.0 0.0 16.290000149 0.0 0.0 0.0 29.1751946751" Properties=species:S:1:pos:R:3:initial_magmoms:R:1 pbc="T T T"
Si      -1.46550543      -1.38202732       1.21587624       0.00000000
Si       1.33889140      -1.33073011      -1.40866592       0.00000000
Si      -1.34696147       1.35267274      -1.38678453       0.00000000
Si       1.41185431       1.39450546       1.30022173       0.00000000
Si      -0.11388339       2.65940768       2.51744002       0.00000000
Si      -0.04906548      -2.60657921       2.59332470       0.00000000
Si       2.75853234       2.68359833      -0.07255871       0.00000000
Si      -2.80591995      -0.07890876       2.63915894       0.00000000
Si      -0.01008351       2.70321149      -2.75702672       0.00000000
Si       2.75853234      -2.70348842      -0.15547461       0.00000000
