10
Lattice="16.290000149 0.0 0.0 0.0 16.290000149 0.0 0.0 0.0 29.1751946751" Properties=species:S:1:pos:R:3:initial_magmoms:R:1 pbc="T T T"
Si      -1.36842517      -1.34890975      -1.33835371       0.00000000
Si      -1.36516717       1.34729704       1.35028636       0.00000000
Si       1.32535441      -1.38349342       1.35997252       0.00000000
Si       1.38482236       1.33167493      -1.36773313       0.00000000
Si       0.07451046      -2.68040549      -2.62142042       0.00000000
Si       2.69538415      -0.01435149       2.68519739       0.00000000
Si      -0.00632052       2.71249679       2.68155049       0.00000000
Si      -2.69431715       2.71397918      -0.02584922       0.00000000
Si       0.05554890       2.74028754      -2.68009173       0.00000000
Si      -2.72100017      -0.03033198       2.70640776       0.00000000
