10
Lattice="16.290000149 0.0 0.0 0.0 16.290000149 0.0 0.0 0.0 29.1751946751" Properties=species:S:1:pos:R:3:initial_magmoms:R:1 pbc="T T T"
Si       1.35607735       1.34964280       1.35501274       0.00000000
Si       1.42514695      -1.36039420      -1.27078395       0.00000000
Si      -1.32471910      -1.38670255       1.38345856       0.00000000
Si      -1.33960816       1.33678999      -1.42150301       0.00000000
Si       0.03448593      -2.70560612      -2.54643725       0.00000000
Si      -2.68607441       2.61591338       0.03915311       0.00000000
Si       2.69674436       2.70282053      -0.03060478       0.00000000
Si       2.70146846      -0.03101616       2.70985043       0.00000000
Si       0.01211976       2.68053581       2.74200150       0.00000000
Si      -2.71129133      -0.06941169      -2.73385578       0.00000000
