10
Lattice="16.290000149 0.0 0.0 0.0 16.290000149 0.0 0.0 0.0 29.1751946751" Properties=species:S:1:pos:R:3:initial_magmoms:R:1 pbc="T T T"
Si       1.38900596      -1.34917039       1.33027218       0.00000000
Si       1.37568074       1.34820928      -1.35072399       0.00000000
Si      -1.31422785      -1.36632376      -1.39448678       0.00000000
Si      -1.36967299       1.33981993       1.38045351       0.00000000
Si      -2.66212160      -2.71992503      -0.03676075       0.00000000
Si       0.02892127      -2.69946479       2.68403038       0.00000000
Si      -2.70175517       2.70612578       0.00825658       0.00000000
Si       0.02988401       2.70920459      -2.70637858       0.00000000
Si      -2.68266329      -0.00954594      -2.73540790       0.00000000
Si       2.70727422      -2.71204067      -0.06065523       0.00000000
