10
Lattice="16.290000149 0.0 0.0 0.0 16.290000149 0.0 0.0 0.0 29.1751946751" Properties=species:S:1:pos:R:3:initial_magmoms:R:1 pbc="T T T"
Si      -1.32315526      -1.32524038       1.36560100       0.00000000
Si       1.26566948      -1.42428358      -1.32797259       0.00000000
Si      -1.13951809       1.50011353      -1.38445576       0.00000000
Si       1.50762974       1.38582289       1.16584428       0.00000000
Si       1.95207959       0.33967908      -2.83615510       0.00000000
H       -2.32539752       0.96185935      -2.43120340       0.00000000
Si       0.53305279       2.28563363      -2.82912388       0.00000000
Si       0.10689498       2.73396702       2.53803246       0.00000000
Si       0.12766968      -2.71015103       2.59270969       0.00000000
Si      -2.58093875       0.07495029       2.73161279       0.00000000
