10
Lattice="16.290000149 0.0 0.0 0.0 16.290000149 0.0 0.0 0.0 29.1751946751" Properties=species:S:1:pos:R:3:initial_magmoms:R:1 pbc="T T T"
Si      -1.67760938       1.68029723       0.24930204       0.00000000
Si       0.35520345      -0.23877882       2.36146943       0.00000000
Si       1.64053334       1.05762826      -1.43016804       0.00000000
Si      -1.06815160      -1.69196087      -1.38532577       0.00000000
H        1.88058766      -1.64281393       0.25726687       0.00000000
H        0.54389052       2.46400913       1.37464765       0.00000000
H       -1.08634753       0.05514165       2.80081869       0.00000000
Si      -2.41015439      -0.27883593      -2.75737682       0.00000000
Si       0.34929018       2.47065545      -2.79075325       0.00000000
Si      -3.53608662       0.84212785      -1.01030782       0.00000000
