10
Lattice="16.290000149 0.0 0.0 0.0 16.290000149 0.0 0.0 0.0 29.1751946751" Properties=species:S:1:pos:R:3:initial_magmoms:R:1 pbc="T T T"
H        1.30976488      -0.46180521       0.60821528       0.00000000
Si      -1.25722963       0.24935103       1.93761220       0.00000000
Si       0.26797050       2.03147705      -1.19469505       0.00000000
Si      -0.97318090      -1.99428698      -0.87995305       0.00000000
H        1.88390594      -0.58075480      -1.72332040       0.00000000
Si       3.07082793      -1.09191871      -0.92555388       0.00000000
H       -0.91163728      -2.81000874       1.69671262       0.00000000
Si      -1.92666719       2.75454129      -0.72879636       0.00000000
Si      -3.31871286      -0.44838225       1.03679889       0.00000000
H        1.07745319       0.16835715      -3.37886682       0.00000000
