10
Lattice="16.290000149 0.0 0.0 0.0 16.290000149 0.0 0.0 0.0 29.1751946751" Properties=species:S:1:pos:R:3:initial_magmoms:R:1 pbc="T T T"
Si       1.18692199      -0.51116391       0.79776652       0.00000000
H       -0.80645275       0.74911195      -1.65554642       0.00000000
H        0.63179137       1.65977183      -1.10582740       0.00000000
H       -0.57414106       0.11894958       2.33153568       0.00000000
Si      -1.88390594       0.58075480       1.72332040       0.00000000
Si      -1.65112184      -0.18534762      -2.46489550       0.00000000
Si       2.51916707      -1.58109112      -0.82379080       0.00000000
Si      -1.61593543       2.61223184       0.52862535       0.00000000
Si       0.49226751      -2.37144935       2.21626449       0.00000000
Si      -2.85708684      -1.41353218       0.84336735       0.00000000
