10
Lattice="16.290000149 0.0 0.0 0.0 16.290000149 0.0 0.0 0.0 29.1751946751" Properties=species:S:1:pos:R:3:initial_magmoms:R:1 pbc="T T T"
Si      -1.36003582       1.35300995      -1.35279543       0.00000000
Si      -1.35984034      -1.36345672       1.34246741       0.00000000
Si       1.33178896       1.35496800       1.38340021       0.00000000
Si       1.35088084      -1.36070371      -1.36026428       0.00000000
Si       2.68348430       2.70624143       0.00991957       0.00000000
Si      -2.71262711       0.02156796       2.67994586       0.00000000
Si       0.02743236      -2.70606224       2.68954450       0.00000000
Si      -2.70689303      -0.03466512      -2.69243284       0.00000000
Si       2.66387114      -0.01133784       2.75559714       0.00000000
Si      -0.01029528       2.74082510      -2.68840666       0.00000000
