10
Lattice="16.290000149 0.0 0.0 0.0 16.290000149 0.0 0.0 0.0 29.1751946751" Properties=species:S:1:pos:R:3:initial_magmoms:R:1 pbc="T T T"
Si       1.36014985       1.35441577       1.35343728       0.00000000
Si      -1.33105917      -1.35765748       1.38322515       0.00000000
Si       1.37852497      -1.35936793      -1.33572794       0.00000000
Si      -1.36922664       1.34871427      -1.36379448       0.00000000
Si      -2.66638665      -2.73463490       0.03824868       0.00000000
Si      -0.00873144       2.70796817       2.70526993       0.00000000
Si       2.71536383       2.69855255      -0.02249408       0.00000000
Si      -0.02389743       2.67805973      -2.74507073       0.00000000
Si      -2.71933859       0.00335574       2.70652446       0.00000000
Si       2.70840800      -0.00636939       2.71901144       0.00000000
