10
Lattice="16.290000149 0.0 0.0 0.0 16.290000149 0.0 0.0 0.0 29.1751946751" Properties=species:S:1:pos:R:3:initial_magmoms:R:1 pbc="T T T"
Si       1.34612416      -1.34500015       1.36557416       0.00000000
Si      -1.35418771       1.32903595       1.40122625       0.00000000
Si      -1.42197040      -1.46020303      -1.22470173       0.00000000
Si       1.45971433       1.43749477      -1.21535400       0.00000000
Si      -0.99698059       0.92685214      -3.42299139       0.00000000
Si       0.04295673       2.78094412      -2.47101937       0.00000000
Si      -2.82769968      -0.09415620      -2.47668811       0.00000000
Si       2.68975595      -2.64818387      -0.05846709       0.00000000
Si      -0.08459397      -2.61475679      -2.78188107       0.00000000
Si      -0.00939933      -2.71567334       2.71203857       0.00000000
