10
Lattice="16.290000149 0.0 0.0 0.0 16.290000149 0.0 0.0 0.0 29.1751946751" Properties=species:S:1:pos:R:3:initial_magmoms:R:1 pbc="T T T"
Si       1.34793235       1.36184401       1.35072399       0.00000000
Si      -1.34309748       1.35804844      -1.36356107       0.00000000
Si       1.35915616      -1.35540946      -1.35428336       0.00000000
Si      -1.36786317      -1.36495540       1.34439297       0.00000000
Si      -0.03341079      -2.69856884      -2.68403038       0.00000000
Si       2.69097770      -0.02127474       2.69447510       0.00000000
Si      -2.67842496      -0.01892898      -2.70853755       0.00000000
Si      -0.04061097       2.71267598       2.68440966       0.00000000
Si       2.69636969       2.70933653      -0.02777479       0.00000000
Si       2.68902290      -2.72541476       0.01838037       0.00000000
