10
Lattice="16.290000149 0.0 0.0 0.0 16.290000149 0.0 0.0 0.0 29.1751946751" Properties=species:S:1:pos:R:3:initial_magmoms:R:1 pbc="T T T"
Si      -0.63948025       0.83875582      -1.08458786       0.00000000
Si       2.15223482       0.25071939       1.30874088       0.00000000
Si       2.25608357      -1.48061440      -0.49615336       0.00000000
Si       0.39662892       1.22401432       2.56622095       0.00000000
Si      -2.06883002       2.06984000       0.19696174       0.00000000
Si       0.42018426      -2.66605889      -1.50039274       0.00000000
Si      -2.08363763      -0.48948192      -2.29101134       0.00000000
Si      -1.37099899      -0.25894584       2.89636745       0.00000000
Si      -0.68670496      -2.31184913       2.13728724       0.00000000
Si       0.86004685       2.20281527      -2.24345577       0.00000000
