10
Lattice="16.290000149 0.0 0.0 0.0 16.290000149 0.0 0.0 0.0 29.1751946751" Properties=species:S:1:pos:R:3:initial_magmoms:R:1 pbc="T T T"
Si       0.27114542      -0.82319887      -2.15444225       0.00000000
Si      -2.26949187       0.48340575      -0.12224407       0.00000000
Si       1.29076911       1.98570378       0.12288592       0.00000000
Si       1.02819060      -1.55057995       1.47830711       0.00000000
Si      -2.54881650       1.22083288       2.08445096       0.00000000
Si       3.35793755       1.25360836       0.95968885       0.00000000
Si       2.57026717      -0.24066846       2.66909268       0.00000000
Si       1.19257299       0.90921007      -3.43214073       0.00000000
Si       1.92166453      -2.47953350      -2.05936029       0.00000000
Si       2.38364893      -2.90724375       0.15264462       0.00000000
