10
Lattice="16.290000149 0.0 0.0 0.0 16.290000149 0.0 0.0 0.0 29.1751946751" Properties=species:S:1:pos:R:3:initial_magmoms:R:1 pbc="T T T"
Si       0.62737678      -0.40399200       2.14700258       0.00000000
Si       1.83334178       0.82419256      -1.16126027       0.00000000
Si      -0.87851971      -1.89019388      -1.06661594       0.00000000
Si      -1.60098121       1.77609872       0.09283547       0.00000000
H        2.67801086       1.75865213      -0.35191120       0.00000000
Si      -2.27240615      -0.60699799      -2.42676352       0.00000000
Si       0.53778177       2.11789550      -2.58751884       0.00000000
Si      -1.49820760      -0.99468370       3.14905381       0.00000000
Si      -3.45558144       0.84370798      -1.01375049       0.00000000
Si      -0.54496566       3.53797626      -1.08919754       0.00000000
