10
Lattice="16.290000149 0.0 0.0 0.0 16.290000149 0.0 0.0 0.0 29.1751946751" Properties=species:S:1:pos:R:3:initial_magmoms:R:1 pbc="T T T"
Si      -0.98067430       1.85666906      -0.89567848       0.00000000
Si      -1.76762792      -1.48296016       0.33014650       0.00000000
Si       0.39177450       0.64079974       2.22113675       0.00000000
Si       1.75560590      -0.97329493      -1.25748007       0.00000000
H       -0.39662892      -1.22401432      -2.56622095       0.00000000
Si       1.86575888      -1.23092128       2.58241318       0.00000000
Si       2.48901428      -2.29934981       0.53402276       0.00000000
Si      -2.46545894       0.84582568      -2.36925921       0.00000000
Si      -1.08333388      -3.53586345      -0.42893371       0.00000000
Si      -3.58261086      -0.60243679      -0.82775862       0.00000000
