10
Lattice="16.290000149 0.0 0.0 0.0 16.290000149 0.0 0.0 0.0 29.1751946751" Properties=species:S:1:pos:R:3:initial_magmoms:R:1 pbc="T T T"
Si      -1.40445051       1.31839858       1.31378819       0.00000000
Si       1.36970394      -1.23908257       1.44504739       0.00000000
Si       1.33155276       1.39771459      -1.34223401       0.00000000
Si      -1.39143480      -1.37531584      -1.31221273       0.00000000
Si       2.56822441      -2.64104885      -0.03075066       0.00000000
Si      -0.11645721       2.72815148       2.63332390       0.00000000
Si       2.63045221       0.04005711      -2.76017764       0.00000000
Si       0.00146610      -2.66642867       2.74521077       0.00000000
Si      -2.73140134      -0.00962739      -2.68776481       0.00000000
Si      -2.72693788       2.69249267      -0.02121037       0.00000000
