10
Lattice="16.290000149 0.0 0.0 0.0 16.290000149 0.0 0.0 0.0 29.1751946751" Properties=species:S:1:pos:R:3:initial_magmoms:R:1 pbc="T T T"
Si      -1.32899686       1.35925390      -1.36545746       0.00000000
Si       1.31031874       1.42978960       1.32306590       0.00000000
Si      -1.34206958      -1.36857178       1.36297757       0.00000000
Si       1.37803627      -1.34576578      -1.35746346       0.00000000
Si       2.66475080       0.07136649       2.62693453       0.00000000
Si      -2.64934046       2.69552261       0.04160383       0.00000000
Si       2.68252319       2.68348430      -0.10902770       0.00000000
Si      -2.67123422      -0.00162900      -2.71977000       0.00000000
Si      -2.61366634      -0.00711873       2.78541419       0.00000000
Si       0.02257794      -2.71373483      -2.69514613       0.00000000
