10
Lattice="16.290000149 0.0 0.0 0.0 16.290000149 0.0 0.0 0.0 29.1751946751" Properties=species:S:1:pos:R:3:initial_magmoms:R:1 pbc="T T T"
H       -1.18692199       0.51116391      -0.79776652       0.00000000
Si       1.33224508      -1.06992721      -1.62155732       0.00000000
H       -1.76106305       0.63011350       1.53376916       0.00000000
Si       1.29753109       1.67265722       1.17573117       0.00000000
Si      -0.69465448      -1.86028544       1.41849797       0.00000000
H       -0.55513063       2.17093574      -1.90359393       0.00000000
H        1.52684542      -1.07657353       2.54384357       0.00000000
Si      -3.07082793       1.09191871       0.92555388       0.00000000
H       -1.99337474       1.26027586      -2.45331295       0.00000000
Si       2.55909386       0.03099987       2.33083548       0.00000000
