10
Lattice="16.290000149 0.0 0.0 0.0 16.290000149 0.0 0.0 0.0 29.1751946751" Properties=species:S:1:pos:R:3:initial_magmoms:R:1 pbc="T T T"
Si       1.06161931      -1.46038222      -1.48364617       0.00000000
Si      -1.31373964      -1.35817876       1.38964370       0.00000000
Si      -1.44068761       1.35461125      -1.28764722       0.00000000
Si       1.81944641       0.75289123       1.37505610       0.00000000
Si       2.15228369      -1.20884833       2.74165139       0.00000000
Si       0.28100250      -2.67320531       2.56692115       0.00000000
Si       2.43913430      -0.14261895      -2.84061365       0.00000000
Si      -2.69482214       0.11865636       2.60791230       0.00000000
Si       2.29366460      -2.99333640      -0.25134430       0.00000000
Si      -0.13792743       2.59128290      -2.78774820       0.00000000
