10
Lattice="16.290000149 0.0 0.0 0.0 16.290000149 0.0 0.0 0.0 29.1751946751" Properties=species:S:1:pos:R:3:initial_magmoms:R:1 pbc="T T T"
Si      -1.37081980       1.35973609      -1.31302964       0.00000000
Si      -1.38763108      -1.35902584       1.30381027       0.00000000
Si       1.32374170      -1.35122293      -1.38506319       0.00000000
Si       1.35565381       1.37229893       1.33762433       0.00000000
Si      -0.00529425      -2.70475904       2.63980079       0.00000000
Si      -0.02388114       2.68802921      -2.65908851       0.00000000
Si       2.67356369       0.04422509      -2.69514905       0.00000000
Si      -2.70545951       0.01171251       2.69263707       0.00000000
Si       2.73815355       0.01286910       2.65996085       0.00000000
Si      -0.00428427       2.72958501       2.67734927       0.00000000
