10
Lattice="16.290000149 0.0 0.0 0.0 16.290000149 0.0 0.0 0.0 29.1751946751" Properties=species:S:1:pos:R:3:initial_magmoms:R:1 pbc="T T T"
Si       2.19737441      -0.38061585       0.80961165       0.00000000
Si       0.05043384       2.27110295       0.73635274       0.00000000
Si       0.14768514      -0.43337916      -2.36240304       0.00000000
Si      -1.51356907      -1.38693550       1.29120659       0.00000000
H       -2.19069551      -0.20874006      -1.38666783       0.00000000
H       -0.72428599       2.44903862      -1.95745134       0.00000000
H        0.53245494       3.06053265      -1.62473742       0.00000000
Si       0.49529745       2.02271303       2.99812119       0.00000000
Si      -0.74619604       1.59756031      -3.21636099       0.00000000
Si       2.12758805       0.29108601       3.04932133       0.00000000
