10
Lattice="16.290000149 0.0 0.0 0.0 16.290000149 0.0 0.0 0.0 29.1751946751" Properties=species:S:1:pos:R:3:initial_magmoms:R:1 pbc="T T T"
Si       1.32571279       1.33203331      -1.40551500       0.00000000
Si      -1.20734965       1.47367486       1.42211569       0.00000000
Si       1.46860867      -1.21007008       1.45053233       0.00000000
Si      -1.56077749      -1.12614400      -1.46281509       0.00000000
H        1.81657937      -3.01940040      -0.80094662       0.00000000
Si      -2.53371404       0.09073530       2.79745479       0.00000000
Si      -0.17172918       2.64999206      -2.69867633       0.00000000
Si       2.91665937       2.46254303      -0.06511903       0.00000000
H        2.01487754       3.20455254       0.91233751       0.00000000
Si       3.00245880      -2.48114621       0.24580102       0.00000000
