10
Lattice="16.290000149 0.0 0.0 0.0 16.290000149 0.0 0.0 0.0 29.1751946751" Properties=species:S:1:pos:R:3:initial_magmoms:R:1 pbc="T T T"
Si       1.46402304      -1.21124296      -1.33847041       0.00000000
Si      -1.15090480      -1.63993060       1.18153703       0.00000000
Si      -1.76726954       1.15867513      -1.03026365       0.00000000
Si       1.45843883       1.38425905       1.34961533       0.00000000
H       -2.05268663      -0.89792110       2.15899358       0.00000000
Si      -3.38043567       1.33053463       0.64856458       0.00000000
Si       2.64251495       0.31539069      -2.65707250       0.00000000
Si       2.90077662      -2.39591693       0.10908605       0.00000000
Si      -0.93449215       3.08680353      -2.05092866       0.00000000
Si       0.25162642      -2.81048115       2.64204728       0.00000000
