10
Lattice="16.290000149 0.0 0.0 0.0 16.290000149 0.0 0.0 0.0 29.1751946751" Properties=species:S:1:pos:R:3:initial_magmoms:R:1 pbc="T T T"
Si      -1.23184981       1.85225447       0.66303547       0.00000000
Si      -1.52780653      -0.72638740      -1.61117095       0.00000000
Si       1.61547931       0.67570921      -1.56530754       0.00000000
Si       0.07636752      -1.46175058       1.93061016       0.00000000
H        0.33705639      -2.56917086      -0.88961004       0.00000000
H        0.06908589       2.40082022       1.58689719       0.00000000
H        1.55528776      -0.39944709      -2.62699288       0.00000000
Si      -2.75279826      -2.04061574      -0.11217862       0.00000000
H       -0.26704197       3.10420614      -2.01408039       0.00000000
Si       2.32217210      -1.96628447       2.20885399       0.00000000
