10
Lattice="16.290000149 0.0 0.0 0.0 16.290000149 0.0 0.0 0.0 29.1751946751" Properties=species:S:1:pos:R:3:initial_magmoms:R:1 pbc="T T T"
Si       1.35993808      -1.35728607      -1.33972494       0.00000000
Si       1.37318185       1.34744365       1.34334266       0.00000000
Si      -1.34444629      -1.35518792       1.36572004       0.00000000
Si      -1.32986674       1.37000530      -1.37266373       0.00000000
Si       0.00195480       2.70414002       2.67609473       0.00000000
Si       2.70816365       0.01679499      -2.67729091       0.00000000
Si       0.04530249      -2.70374906       2.69879303       0.00000000
Si       0.00428427      -2.72958501      -2.67734927       0.00000000
Si      -2.68902290       2.72541476      -0.01838037       0.00000000
Si      -2.70117524      -2.71787249       0.01528780       0.00000000
