10
Lattice="16.290000149 0.0 0.0 0.0 16.290000149 0.0 0.0 0.0 29.1751946751" Properties=species:S:1:pos:R:3:initial_magmoms:R:1 pbc="T T T"
Si      -1.37859013       1.36599796       1.31200850       0.00000000
Si      -1.37849239      -1.33543792      -1.34450967       0.00000000
Si       1.35635428       1.35558865      -1.35772603       0.00000000
Si       1.35462754      -1.35159760       1.36907519       0.00000000
Si      -0.00143352       2.70614369       2.64455635       0.00000000
Si      -0.00750969      -2.68121999      -2.68312595       0.00000000
Si      -2.73228914       0.01466100       2.67413999       0.00000000
Si       2.71513577      -2.70314633       0.01610471       0.00000000
Si       0.00047241       2.72585459      -2.69686747       0.00000000
Si      -2.72841212      -2.70018155       0.01222441       0.00000000
