10
Lattice="16.290000149 0.0 0.0 0.0 16.290000149 0.0 0.0 0.0 29.1751946751" Properties=species:S:1:pos:R:3:initial_magmoms:R:1 pbc="T T T"
Si       1.29616273       1.48968793      -1.27034866       0.00000000
Si       1.37337733      -1.35079939       1.36257203       0.00000000
Si      -1.38393325       1.37091754       1.35131624       0.00000000
Si      -1.16805817      -1.46720773      -1.45626525       0.00000000
Si       2.61164540       0.07064973      -2.56623554       0.00000000
Si      -2.52762158      -0.05976801      -2.76628985       0.00000000
Si      -2.65778846      -2.66750381      -0.01914476       0.00000000
Si       0.01848915      -2.66651012       2.76065903       0.00000000
Si       2.71816571       0.01795158       2.72448179       0.00000000
Si      -0.02096523       2.73873999       2.71412460       0.00000000
