10
Lattice="16.290000149 0.0 0.0 0.0 16.290000149 0.0 0.0 0.0 29.1751946751" Properties=species:S:1:pos:R:3:initial_magmoms:R:1 pbc="T T T"
Si      -1.37613034      -1.32020677       1.36402788       0.00000000
Si      -1.37337733       1.35244468      -1.34529740       0.00000000
Si       1.29098251      -1.36764325      -1.41240035       0.00000000
Si       1.40890582       1.32525667       1.35609222       0.00000000
Si       0.04351059      -2.69296508       2.61721919       0.00000000
Si       0.04351059       2.69412167       2.70013509       0.00000000
Si      -0.00964368       2.70233183      -2.69529201       0.00000000
Si       2.67996566      -0.00804726      -2.72572174       0.00000000
Si       2.61081461      -2.80824942      -0.13627733       0.00000000
Si      -2.73251720      -2.70194087       0.01301214       0.00000000
