10
Lattice="16.290000149 0.0 0.0 0.0 16.290000149 0.0 0.0 0.0 29.1751946751" Properties=species:S:1:pos:R:3:initial_magmoms:R:1 pbc="T T T"
Si      -0.62737678       0.40399200      -2.14700258       0.00000000
Si       1.49087710      -1.79608655       0.11328728       0.00000000
Si       0.97318090       1.99428698       0.87995305       0.00000000
Si      -2.12558438      -0.59069170       1.00205124       0.00000000
H        0.06154362      -0.81572176       2.57666567       0.00000000
H        0.71636905      -1.22772844       2.62492144       0.00000000
H        2.28294578       1.53248176       1.48816833       0.00000000
H        2.85708684       1.41353218      -0.84336735       0.00000000
Si      -2.34553196       1.54590472       1.91675194       0.00000000
Si      -0.16658154      -3.32607594       0.84923157       0.00000000
