10
Lattice="16.290000149 0.0 0.0 0.0 16.290000149 0.0 0.0 0.0 29.1751946751" Properties=species:S:1:pos:R:3:initial_magmoms:R:1 pbc="T T T"
Si       1.33888652      -1.35912358       1.36321097       0.00000000
Si      -1.35187942      -1.35273790      -1.36146046       0.00000000
Si      -1.32762361       1.34897491       1.39562461       0.00000000
Si       1.35872774       1.35187453      -1.36271499       0.00000000
Si       2.68984881       0.02710656       2.68633522       0.00000000
Si      -2.67045719       2.70677900       0.02643273       0.00000000
Si       0.03640001      -2.71375112      -2.68475976       0.00000000
Si      -2.69007035      -2.70990668       0.01954738       0.00000000
Si       2.69893863       2.71466336       0.00253824       0.00000000
Si      -2.69727053       0.02792106      -2.71629815       0.00000000
