10
Lattice="16.290000149 0.0 0.0 0.0 16.290000149 0.0 0.0 0.0 29.1751946751" Properties=species:S:1:pos:R:3:initial_magmoms:R:1 pbc="T T T"
Si       1.34693866       1.32829313      -1.34605887       0.00000000
Si      -1.35589816       1.39669484       1.28796814       0.00000000
Si       1.37081980      -1.35973609       1.31302964       0.00000000
Si      -1.30122892      -1.32521758      -1.42744600       0.00000000
Si      -2.68043645       0.01297173       2.65001211       0.00000000
Si      -0.01681128      -2.71876193       2.61683991       0.00000000
Si       0.03666879       2.73985422       2.61771517       0.00000000
Si       2.72647361       0.01256285       2.65065396       0.00000000
Si      -2.57865490       0.04840899      -2.81662289       0.00000000
Si      -2.65123173       2.74966080      -0.14322103       0.00000000
