10
Lattice="16.290000149 0.0 0.0 0.0 16.290000149 0.0 0.0 0.0 29.1751946751" Properties=species:S:1:pos:R:3:initial_magmoms:R:1 pbc="T T T"
Si       1.36687762      -1.35741313       1.32817156       0.00000000
Si       1.36857178       1.34377840      -1.34290504       0.00000000
Si      -1.34021089      -1.36278883      -1.36525323       0.00000000
Si      -1.31826826       1.36287028       1.39092741       0.00000000
Si      -0.01376505       2.68951160      -2.67889555       0.00000000
Si      -0.00908982      -2.68755680       2.68379698       0.00000000
Si       2.71551044       0.00439830       2.67632813       0.00000000
Si      -2.69893863      -2.71466336      -0.00253824       0.00000000
Si      -2.69111291      -0.00363267      -2.72522576       0.00000000
Si       2.71868699      -0.02112813      -2.69873468       0.00000000
