10
Lattice="16.290000149 0.0 0.0 0.0 16.290000149 0.0 0.0 0.0 29.1751946751" Properties=species:S:1:pos:R:3:initial_magmoms:R:1 pbc="T T T"
Si       1.36948402      -1.34193763       1.35343728       0.00000000
Si       1.37701000       1.35547462      -1.33231444       0.00000000
Si      -1.32012532       1.36844146       1.38386701       0.00000000
Si      -1.36643779      -1.36215352      -1.35247450       0.00000000
Si      -0.01949913      -2.70153362       2.66675867       0.00000000
Si      -0.00548973       2.71490446      -2.65465096       0.00000000
Si       2.72761392      -0.02117700      -2.68120039       0.00000000
Si      -2.68385897       0.01855431       2.73386162       0.00000000
Si      -2.70987410       2.71700261       0.05079401       0.00000000
Si       2.72184725      -2.71179632       0.00259659       0.00000000
