10
Lattice="16.290000149 0.0 0.0 0.0 16.290000149 0.0 0.0 0.0 29.1751946751" Properties=species:S:1:pos:R:3:initial_magmoms:R:1 pbc="T T T"
H        1.98702164      -0.08702118      -1.05830101       0.00000000
Si       1.02221380      -1.33897285       1.61881485       0.00000000
Si       0.76911607       1.86696434      -1.28117032       0.00000000
Si      -0.74772730      -2.04589370      -1.01666801       0.00000000
Si      -1.05420736       1.10284930       1.88080810       0.00000000
H       -1.23722551       1.26832312      -2.35779336       0.00000000
H       -3.07683894      -0.00364896      -1.26264408       0.00000000
H       -1.89205094       1.68032981      -2.40604913       0.00000000
H        2.32314950      -0.79040710       2.54267657       0.00000000
Si      -2.57924459       2.43154316       0.77136297       0.00000000
