10
Lattice="16.290000149 0.0 0.0 0.0 16.290000149 0.0 0.0 0.0 29.1751946751" Properties=species:S:1:pos:R:3:initial_magmoms:R:1 pbc="T T T"
Si       1.34579673      -1.36099530       1.35565460       0.00000000
Si      -1.31413093      -1.38401307      -1.36391118       0.00000000
Si      -1.37994383       1.34819462       1.34115452       0.00000000
Si       1.32453828       1.38372311      -1.36204396       0.00000000
Si      -2.63078778       0.05128255      -2.64023842       0.00000000
Si       2.68043645      -0.01297173      -2.65001211       0.00000000
Si      -0.00991409       2.71733655       2.66637939       0.00000000
Si       2.66362517      -2.73173366      -0.03317220       0.00000000
Si       2.70252569       0.00168927       2.70608683       0.00000000
Si      -0.02988401      -2.70920459       2.70637858       0.00000000
