10
Lattice="16.290000149 0.0 0.0 0.0 16.290000149 0.0 0.0 0.0 29.1751946751" Properties=species:S:1:pos:R:3:initial_magmoms:R:1 pbc="T T T"
Si      -1.74689075      -0.32338745       1.49196111       0.00000000
Si       0.11725542      -2.30537222      -0.23456857       0.00000000
Si      -0.98205895       0.86034984      -1.98703498       0.00000000
Si       1.83589931       1.18544449       1.00423938       0.00000000
H       -0.42018426       2.66605889       1.50039274       0.00000000
Si      -2.50382189       2.17657697      -0.79061860       0.00000000
Si       1.71825293      -2.23154594      -2.02601304       0.00000000
Si      -1.05966451       3.50481471       0.41580487       0.00000000
Si       0.40350330      -3.19141791       2.00696164       0.00000000
Si      -3.66516858       0.73603433       0.71307093       0.00000000
