10
Lattice="16.290000149 0.0 0.0 0.0 16.290000149 0.0 0.0 0.0 29.1751946751" Properties=species:S:1:pos:R:3:initial_magmoms:R:1 pbc="T T T"
Si       2.06716844      -0.73209541       0.83680293       0.00000000
Si       0.74839519       0.58543817      -2.15712637       0.00000000
Si      -1.29076911      -1.98570378      -0.12288592       0.00000000
Si      -0.61548508       1.51773768       1.75427528       0.00000000
H        0.64218439       1.58138272       2.60344850       0.00000000
H        0.13616811       1.88958952      -2.60067685       0.00000000
Si      -0.12631266       3.49112459       0.05371153       0.00000000
Si       1.27949806      -2.22637224       2.54620676       0.00000000
Si       3.11158551      -1.39789541      -1.23708660       0.00000000
Si       2.98056504       1.35674361       1.62771329       0.00000000
