10
Lattice="10.86 0.0 0.0 0.0 10.86 0.0 0.0 0.0 10.86" Properties=species:S:1:pos:R:3:initial_magmoms:R:1 pbc="T T T"
Si       1.38631158      -1.38631158       1.27496400       0.00000000
Si      -1.37521266      -1.33978734      -1.33774566       0.00000000
Si       1.33978734       1.37521266      -1.33774566       0.00000000
Si      -1.37521266       1.37521266       1.37725434       0.00000000
Si       2.69728734       0.01771266      -2.69524566       0.00000000
Si      -0.01771266      -2.69728734      -2.69524566       0.00000000
Si      -0.01771266       2.73271266      -2.69524566       0.00000000
Si      -2.73271266       0.01771266      -2.69524566       0.00000000
Si       2.69728734       2.73271266       0.01975434       0.00000000
Si      -2.73271266      -2.69728734       0.01975434       0.00000000
