10
Lattice="10.86 0.0 0.0 0.0 10.86 0.0 0.0 0.0 10.86" Properties=species:S:1:pos:R:3:initial_magmoms:R:1 pbc="T T T"
Si       1.33941810      -1.33941810      -1.27016388       0.00000000
Si      -1.38631158       1.38631158      -1.27496400       0.00000000
Si       2.66847576       0.04652424      -2.61270966       0.00000000
Si      -0.04652424      -2.66847576      -2.61270966       0.00000000
Si       2.66847576      -2.66847576       0.10229034       0.00000000
Si      -2.76152424       0.04652424      -2.61270966       0.00000000
Si      -0.04652424       2.76152424      -2.61270966       0.00000000
Si       2.66847576       2.76152424       0.10229034       0.00000000
Si      -2.76152424      -2.66847576       0.10229034       0.00000000
Si      -0.04652424      -2.66847576       2.81729034       0.00000000
