10
Lattice="16.28999089631971 0.0 0.0 0.0 16.28999089631971 0.0 0.0 0.0 34.45770212530097" Properties=species:S:1:pos:R:3:initial_magmoms:R:1 pbc="T T T"
Si      -1.42286375       1.26136891       1.40269803       0.00000000
Si      -1.83975743      -0.89346415      -1.19423881       0.00000000
Si       1.26393458      -1.45849897       1.38331556       0.00000000
Si       1.87564037       0.88420654      -1.34705367       0.00000000
Si      -0.47274069      -0.66321966      -3.14664263       0.00000000
Si      -2.84209742       2.45159776       0.01581954       0.00000000
Si       2.66656874       2.67270193      -0.00539263       0.00000000
Si       2.62512698      -0.09018959       2.74812388       0.00000000
Si      -0.08807514       2.62290340       2.75567012       0.00000000
Si       2.63530823      -2.77582156      -0.05888480       0.00000000
