10
Lattice="16.28999089631971 0.0 0.0 0.0 16.28999089631971 0.0 0.0 0.0 34.45770212530097" Properties=species:S:1:pos:R:3:initial_magmoms:R:1 pbc="T T T"
Si      -1.78297308      -0.89932203       1.05812771       0.00000000
Si       1.35866745      -1.26267700      -1.35246556       0.00000000
Si       1.68873543       0.77009346       1.39808759       0.00000000
Si      -1.34944731       1.47318615      -1.33599477       0.00000000
Si       2.58163920       2.58240483       0.02494739       0.00000000
Si      -0.00504990      -2.58529535      -2.70475884       0.00000000
Si      -1.19540907      -1.91022404       2.99565092       0.00000000
Si       2.65688271      -2.65628717       0.09951390       0.00000000
Si       2.71106325       0.12896793      -2.70410414       0.00000000
Si      -2.72523555       0.12812085      -2.70262246       0.00000000
