10
Lattice="16.28999089631971 0.0 0.0 0.0 16.28999089631971 0.0 0.0 0.0 34.45770212530097" Properties=species:S:1:pos:R:3:initial_magmoms:R:1 pbc="T T T"
Si      -0.73536318       1.81369602      -1.30873872       0.00000000
Si       2.21918670      -0.50015187      -0.63881170       0.00000000
Si      -1.37070576      -1.94528175      -0.35084852       0.00000000
Si       0.59921136       1.06274331       2.13148573       0.00000000
Si       2.93373126       1.67708808      -0.26632373       0.00000000
Si       1.19982366       3.12362379      -0.86364833       0.00000000
Si      -0.09747936      -3.25927781       1.17207939       0.00000000
Si      -2.66823684       2.55479328      -0.07818457       0.00000000
Si      -0.48630537      -0.19893348       3.74810419       0.00000000
Si      -3.64412024      -1.14100047      -0.08535178       0.00000000
