10
Lattice="16.28999089631971 0.0 0.0 0.0 16.28999089631971 0.0 0.0 0.0 34.45770212530097" Properties=species:S:1:pos:R:3:initial_magmoms:R:1 pbc="T T T"
Si       0.72384615       1.76779080       1.45549415       0.00000000
Si       1.35749457      -1.33915203      -1.48295696       0.00000000
Si      -1.14349284      -1.54245123       1.49329427       0.00000000
Si      -1.37065689       1.36223496      -1.49801498       0.00000000
Si      -2.61400743      -2.70646947      -0.01715995       0.00000000
Si       2.59032177       2.74471839       0.08762599       0.00000000
Si      -0.94765446       3.51588699       1.00757823       0.00000000
Si      -2.80717425       2.68692147      -0.13772751       0.00000000
Si      -0.00786807      -2.69133606      -2.86260966       0.00000000
Si       2.58577686      -2.95586937      -0.13583234       0.00000000
