10
Lattice="16.28999089631971 0.0 0.0 0.0 16.28999089631971 0.0 0.0 0.0 34.45770212530097" Properties=species:S:1:pos:R:3:initial_magmoms:R:1 pbc="T T T"
Si       1.50122124      -1.11768948      -1.37314020       0.00000000
Si       1.71522297       0.82512108       1.37734404       0.00000000
Si      -1.22828229       1.61671734      -1.34712462       0.00000000
Si      -0.89290377      -1.81231137       1.37314020       0.00000000
Si       0.17212014       1.01068047       3.40938478       0.00000000
Si      -2.58163920      -2.58240483      -0.02494739       0.00000000
Si       0.12942405      -2.45343690      -2.72905153       0.00000000
Si      -2.59364493       0.26453331      -2.72677732       0.00000000
Si       2.85542523      -2.46883095       0.15485300       0.00000000
Si       2.62373256       2.75906988       0.09499994       0.00000000
