10
Lattice="16.28999089631971 0.0 0.0 0.0 16.28999089631971 0.0 0.0 0.0 34.45770212530097" Properties=species:S:1:pos:R:3:initial_magmoms:R:1 pbc="T T T"
Si       1.40841711      -1.44075276       1.19812943       0.00000000
Si      -2.33487828      -0.25273935       0.18931072       0.00000000
Si       0.27824949      -0.02782332      -2.34202241       0.00000000
Si       0.44590617       2.22034329       0.72061433       0.00000000
Si       2.72091870       1.51083234       1.40177456       0.00000000
Si       1.78494417      -0.09184302       3.04668281       0.00000000
Si      -2.74002687      -1.25366211      -1.89731105       0.00000000
Si       0.60378885      -2.47169799      -2.50803971       0.00000000
Si       3.60805581      -0.56177694       0.72412901       0.00000000
Si       0.96003486       3.45699864      -1.17642107       0.00000000
