10
Lattice="16.28999089631971 0.0 0.0 0.0 16.28999089631971 0.0 0.0 0.0 34.45770212530097" Properties=species:S:1:pos:R:3:initial_magmoms:R:1 pbc="T T T"
Si      -1.19505069      -1.70471592      -1.09119265       0.00000000
Si       1.21612995      -1.47141054       1.47376364       0.00000000
Si      -1.49237577       1.24654338       1.44569093       0.00000000
Si       1.80947691       0.75124593      -1.47921971       0.00000000
Si       2.65171878       2.48455080      -0.11460294       0.00000000
Si      -1.73916927      -0.63884493      -3.20858383       0.00000000
Si       2.51436150      -2.75915133      -0.00795973       0.00000000
Si       0.49941882      -3.54139713      -1.17246153       0.00000000
Si       3.50845875      -0.98916138      -1.17069178       0.00000000
Si       2.57852781      -0.12862584       2.84124243       0.00000000
