10
Lattice="16.28999089631971 0.0 0.0 0.0 16.28999089631971 0.0 0.0 0.0 34.45770212530097" Properties=species:S:1:pos:R:3:initial_magmoms:R:1 pbc="T T T"
Si       1.36239786       1.34278470       1.36747879       0.00000000
Si       1.29823155      -1.28774079      -1.48172337       0.00000000
Si      -1.35236322      -1.37036367       1.36231014       0.00000000
Si      -1.21612995       1.47141054      -1.47376364       0.00000000
Si      -0.71671113      -2.06998659      -2.64622516       0.00000000
Si      -2.41118064      -0.23330538      -2.56495628       0.00000000
Si       2.29232880       0.48224916      -2.64445542       0.00000000
Si       0.59334696       2.22265647      -2.95298335       0.00000000
Si       2.71202436       2.70653463       0.00530993       0.00000000
Si       0.00560376       2.70091458       2.72204628       0.00000000
