10
Lattice="16.28999089631971 0.0 0.0 0.0 16.28999089631971 0.0 0.0 0.0 34.45770212530097" Properties=species:S:1:pos:R:3:initial_magmoms:R:1 pbc="T T T"
Si      -0.99409725      -1.76998995       1.16273205       0.00000000
Si       1.44164871      -1.51540983      -1.08348208       0.00000000
Si       1.83332547       0.96905952       1.29394705       0.00000000
Si      -1.69898184       1.74040731      -0.30852793       0.00000000
Si       0.41969556       2.22428547       2.64976535       0.00000000
Si       0.10261071       0.79677648      -3.40955057       0.00000000
Si      -2.29232880      -0.48224916       2.64445542       0.00000000
Si       2.37762324       0.08726553      -2.72839033       0.00000000
Si      -0.85673997       3.47371218       1.05608884       0.00000000
Si      -3.50845875       0.98916138       1.17069178       0.00000000
