10
Lattice="16.28999089631971 0.0 0.0 0.0 16.28999089631971 0.0 0.0 0.0 34.45770212530097" Properties=species:S:1:pos:R:3:initial_magmoms:R:1 pbc="T T T"
Si      -1.35544203      -1.35583299      -1.35794434       0.00000000
Si      -1.35325917       1.36029645       1.35780651       0.00000000
Si       1.36026387      -1.35281934       1.36021855       0.00000000
Si       1.35941679       1.35920502      -1.35732410       0.00000000
Si       0.02028105       2.69535969       2.70796341       0.00000000
Si      -2.71230129       0.00135207      -2.71454483       0.00000000
Si      -2.71454931      -2.71254564      -0.00017229       0.00000000
Si       0.00229689      -2.71316466      -2.71506170       0.00000000
Si      -2.71262709       2.71634121      -0.00051687       0.00000000
Si       0.00288333       2.71611315      -2.71444146       0.00000000
