10
Lattice="16.28999089631971 0.0 0.0 0.0 16.28999089631971 0.0 0.0 0.0 34.45770212530097" Properties=species:S:1:pos:R:3:initial_magmoms:R:1 pbc="T T T"
Si       0.82399707       1.91575287       1.06815491       0.00000000
Si      -1.21922505       1.32760242      -1.60380018       0.00000000
Si      -1.86647562      -0.97692759       1.36786817       0.00000000
Si       1.45984464      -1.36682874      -1.55690323       0.00000000
Si      -2.64481182       2.56433922      -0.27579960       0.00000000
Si      -3.53797623       0.77116860       0.91995225       0.00000000
Si      -2.59032177      -2.74471839      -0.08762599       0.00000000
Si       2.72287350       2.67701715      -0.24199658       0.00000000
Si       0.42670026       1.85127705       3.37919982       0.00000000
Si      -1.00866051       3.61299168       0.98921227       0.00000000
