10
Lattice="16.28999089631971 0.0 0.0 0.0 16.28999089631971 0.0 0.0 0.0 34.45770212530097" Properties=species:S:1:pos:R:3:initial_magmoms:R:1 pbc="T T T"
Si      -0.23864850      -2.08249731       1.13203952       0.00000000
Si       0.35738631       1.31334867       1.95681954       0.00000000
Si       2.00671623      -0.04742019      -1.31411412       0.00000000
Si      -2.12825592       0.54406971      -1.04610196       0.00000000
Si      -1.97232804       1.03764042       2.58984234       0.00000000
Si       1.17146277      -1.78230519       3.02583589       0.00000000
Si      -2.38731579       2.83670802      -0.39209441       0.00000000
Si       0.86253921      -3.67759782      -0.23093565       0.00000000
Si       1.77808608       1.60578675      -3.01780724       0.00000000
Si      -3.55259162      -0.63594531       1.63112516       0.00000000
