10
Lattice="16.28999089631971 0.0 0.0 0.0 16.28999089631971 0.0 0.0 0.0 34.45770212530097" Properties=species:S:1:pos:R:3:initial_magmoms:R:1 pbc="T T T"
Si       0.51412869       1.23665535      -1.89703539       0.00000000
Si      -0.44590617      -2.22034329      -0.72061433       0.00000000
Si       2.27501253      -0.70951095       0.68116024       0.00000000
Si      -2.09323242       1.34682462       0.61479466       0.00000000
Si      -0.10261071      -0.79677648       3.40955057       0.00000000
Si       1.33903800      -2.31218631       2.32606848       0.00000000
Si       2.03908446       2.84890923      -1.03445525       0.00000000
Si      -1.80159255       0.94363083       3.10102264       0.00000000
Si       1.18534185      -0.32384520      -3.55048915       0.00000000
Si      -2.78078445      -2.47308264      -0.53130361       0.00000000
