10
Lattice="16.28999089631971 0.0 0.0 0.0 16.28999089631971 0.0 0.0 0.0 34.45770212530097" Properties=species:S:1:pos:R:3:initial_magmoms:R:1 pbc="T T T"
Si      -1.63615131      -1.04865246      -1.26501187       0.00000000
Si       1.07935911       1.73771946      -1.13810408       0.00000000
Si      -0.67903236       1.45518570       1.90261754       0.00000000
Si       1.83265758      -1.69723881       0.07894264       0.00000000
Si       1.43536077      -1.76171463       2.38998756       0.00000000
Si       1.51132104       2.22048894       2.15529601       0.00000000
Si      -0.21056454      -2.28538926      -2.59301245       0.00000000
Si       2.48034798       0.47257290      -2.58901535       0.00000000
Si      -1.00703151      -1.85691339       3.09998890       0.00000000
Si      -2.52931572      -2.84182308      -0.06926002       0.00000000
