10
Lattice="16.28999089631971 0.0 0.0 0.0 16.28999089631971 0.0 0.0 0.0 34.45770212530097" Properties=species:S:1:pos:R:3:initial_magmoms:R:1 pbc="T T T"
Si      -1.09457397      -0.34927389      -2.02690654       0.00000000
Si      -1.20047526      -0.58591872       1.95916266       0.00000000
Si      -0.33295131       2.32514242       0.53068337       0.00000000
Si       1.93603392      -1.47458709       0.32514306       0.00000000
Si       0.71853561       0.07654671       3.18482381       0.00000000
Si       1.00225854       2.31074857       2.45704228       0.00000000
Si      -0.62117028      -2.51367732      -2.84141816       0.00000000
Si       3.81335868      -0.36637839      -0.53688576       0.00000000
Si      -2.64419280       2.66116765       0.97367183       0.00000000
Si       2.41929306      -1.46015415       2.65875778       0.00000000
