10
Lattice="16.28999089631971 0.0 0.0 0.0 16.28999089631971 0.0 0.0 0.0 34.45770212530097" Properties=species:S:1:pos:R:3:initial_magmoms:R:1 pbc="T T T"
Si       1.09457397       0.34927389       2.02690654       0.00000000
Si       0.47340369      -2.16440343      -0.81451162       0.00000000
Si      -2.36307627       0.26596683       0.26787433       0.00000000
Si       0.80140284       1.14769566      -2.01188298       0.00000000
Si      -1.29249747       2.17629254      -2.15646758       0.00000000
Si      -1.66413753      -2.08730286      -2.06877268       0.00000000
Si      -2.70861975       0.11016927      -2.10484991       0.00000000
Si       0.76162266       2.67441631       2.55758991       0.00000000
Si      -2.77027740       2.48609902       1.00609655       0.00000000
Si       2.91579597      -2.06920467      -1.52451297       0.00000000
