10
Lattice="16.28999089631971 0.0 0.0 0.0 16.28999089631971 0.0 0.0 0.0 34.45770212530097" Properties=species:S:1:pos:R:3:initial_magmoms:R:1 pbc="T T T"
Si      -1.42022084      -1.18045485      -1.40408323       0.00000000
Si       2.25523647      -0.64534464       0.21022656       0.00000000
Si       0.07903908       2.04408549      -1.19330535       0.00000000
Si      -1.19909550      -0.21980097       2.21849148       0.00000000
Si      -1.51449759      -3.18150933      -0.27314636       0.00000000
Si      -1.44214555       3.23856603       0.08352552       0.00000000
Si       2.24818290       2.63769309      -0.87143577       0.00000000
Si       2.58378948      -0.30507912       2.54449598       0.00000000
Si       3.34075320       0.61633215      -1.40639190       0.00000000
Si      -3.40763084       0.08263917      -1.58674361       0.00000000
