10
Lattice="16.28999089631971 0.0 0.0 0.0 16.28999089631971 0.0 0.0 0.0 34.45770212530097" Properties=species:S:1:pos:R:3:initial_magmoms:R:1 pbc="T T T"
Si       1.35418770       1.34900748       1.38276424       0.00000000
Si      -1.35610992      -1.36859946       1.38162713       0.00000000
Si       1.31204547      -1.45737345      -1.37073160       0.00000000
Si      -1.37391489       1.29026574      -1.55566275       0.00000000
Si      -2.28535668      -0.63588015      -2.87898194       0.00000000
Si      -0.37900314      -2.60025574      -2.78577381       0.00000000
Si       2.71420722       2.70387936      -0.00448295       0.00000000
Si      -2.72357397       2.69635338      -0.01426894       0.00000000
Si       0.00071676       2.70324405       2.74225918       0.00000000
Si       2.71573848      -0.00925272       2.74146665       0.00000000
