10
Lattice="16.28999089631971 0.0 0.0 0.0 16.28999089631971 0.0 0.0 0.0 34.45770212530097" Properties=species:S:1:pos:R:3:initial_magmoms:R:1 pbc="T T T"
Si      -1.81084527      -0.79148712       1.45550246       0.00000000
Si       0.91144179       1.92614589       1.32331920       0.00000000
Si      -1.25520966       0.07630236      -2.26649108       0.00000000
Si       1.90635354      -1.96437559       0.09320814       0.00000000
Si       2.39272407       0.90292212      -1.48206105       0.00000000
Si       0.65010132       1.40028840      -2.98631288       0.00000000
Si      -0.45001125      -2.10161094       2.90090739       0.00000000
Si       2.28535668       0.63588015       2.87898194       0.00000000
Si       0.83271222      -3.54347315       1.53888670       0.00000000
Si       3.59740215      -0.82149330       1.50825034       0.00000000
