10
Lattice="16.28999089631971 0.0 0.0 0.0 16.28999089631971 0.0 0.0 0.0 34.45770212530097" Properties=species:S:1:pos:R:3:initial_magmoms:R:1 pbc="T T T"
Si       0.33529707      -0.18948528      -2.30036302       0.00000000
Si      -0.44168706       2.28630150       0.30887901       0.00000000
Si       1.74262275      -0.49736628       1.50425183       0.00000000
Si      -1.90531098      -1.32398604       0.71982180       0.00000000
Si      -0.65010132      -1.40028840       2.98631288       0.00000000
Si       2.76886017       1.66627152       1.46031823       0.00000000
Si      -0.17917371      -2.50082940      -2.52041003       0.00000000
Si       1.75795164       3.16527732      -0.16512140       0.00000000
Si      -1.24631532       1.25535627      -3.39729012       0.00000000
Si      -2.03701563      -3.11492167      -1.06750021       0.00000000
