10
Lattice="16.28999089631971 0.0 0.0 0.0 16.28999089631971 0.0 0.0 0.0 34.45770212530097" Properties=species:S:1:pos:R:3:initial_magmoms:R:1 pbc="T T T"
Si      -2.02466781      -0.35354187       0.99196888       0.00000000
Si       1.53101565      -1.38526902       1.11267428       0.00000000
Si      -0.25589961      -0.85602321      -2.17855498       0.00000000
Si       0.69105438       2.22443208       0.37817349       0.00000000
Si       1.58674374       0.18324621      -3.14592105       0.00000000
Si       3.52127898      -1.03374711      -0.23906767       0.00000000
Si       3.27657060       0.87892695      -1.66392891       0.00000000
Si      -2.73921237      -2.53078182       0.61948092       0.00000000
Si      -0.29032038      -3.24687393      -2.14726737       0.00000000
Si      -0.76435938       3.75966684      -0.75989613       0.00000000
