10
Lattice="16.28999089631971 0.0 0.0 0.0 16.28999089631971 0.0 0.0 0.0 34.45770212530097" Properties=species:S:1:pos:R:3:initial_magmoms:R:1 pbc="T T T"
Si      -1.35423657       1.35620766       1.35691061       0.00000000
Si      -1.34496756      -1.35277047      -1.37084187       0.00000000
Si       1.37409408       1.33959186      -1.35699675       0.00000000
Si       1.35918873      -1.35824391       1.35653158       0.00000000
Si       0.11973150      -2.52097524      -2.82732840       0.00000000
Si      -2.66325210       0.10586871      -2.71619536       0.00000000
Si      -2.71197549      -0.00184077       2.71416580       0.00000000
Si      -2.71448415       2.71262709      -0.00258433       0.00000000
Si       0.00306252       2.71337643       2.71423471       0.00000000
Si       2.71596654       2.71184517      -0.00285999       0.00000000
