10
Lattice="16.28999089631971 0.0 0.0 0.0 16.28999089631971 0.0 0.0 0.0 34.45770212530097" Properties=species:S:1:pos:R:3:initial_magmoms:R:1 pbc="T T T"
Si      -0.55420209       2.09776104       0.93246040       0.00000000
Si      -2.07184365      -1.02674241       0.58598801       0.00000000
Si       1.78655688      -1.11311199       1.28361904       0.00000000
Si       1.38961845      -0.05839965      -2.32158898       0.00000000
Si       3.04191315      -0.68836653      -0.73498320       0.00000000
Si       1.62424332       3.02808294       0.41290688       0.00000000
Si      -1.54166931      -1.37077092       2.88321538       0.00000000
Si       0.30366189      -2.71526607       2.42875249       0.00000000
Si       3.46623507       1.66272030      -0.46459346       0.00000000
Si      -2.12722965       3.34762758      -0.24468428       0.00000000
