10
Lattice="16.28999089631971 0.0 0.0 0.0 16.28999089631971 0.0 0.0 0.0 34.45770212530097" Properties=species:S:1:pos:R:3:initial_magmoms:R:1 pbc="T T T"
Si       0.04935870       2.32222095       0.65383526       0.00000000
Si       1.31937597      -1.62466686       1.25367528       0.00000000
Si      -2.27921535      -0.37007622      -0.80903284       0.00000000
Si       1.50757434       0.12846294      -2.04558263       0.00000000
Si       0.52010712      -3.34006902      -0.09482765       0.00000000
Si      -0.06545322       1.37832948      -3.22272731       0.00000000
Si      -2.50784550       1.28313072      -2.51272596       0.00000000
Si       0.53261784       2.33665389       2.98744999       0.00000000
Si      -0.01006722      -2.99604051      -2.39205502       0.00000000
Si       1.92668346       3.43042965      -0.20819355       0.00000000
