10
Lattice="16.28999089631971 0.0 0.0 0.0 16.28999089631971 0.0 0.0 0.0 34.45770212530097" Properties=species:S:1:pos:R:3:initial_magmoms:R:1 pbc="T T T"
Si      -1.26862677       1.36519974       1.37948042       0.00000000
Si      -1.25552321      -1.52924004      -1.32437679       0.00000000
Si       1.75903981       1.12513401      -1.18463165       0.00000000
Si       1.44000016      -1.37541357       1.37722688       0.00000000
Si       0.61479763      -1.79835084      -2.91950767       0.00000000
Si       3.45350932      -0.71154720      -1.26590053       0.00000000
Si      -2.61401787      -0.01283652       2.74153212       0.00000000
Si      -2.51808606       2.84788296      -0.09948289       0.00000000
Si       0.10238102       2.70053991       2.74001598       0.00000000
Si       0.10102243      -2.72774421       2.74945740       0.00000000
