10
Lattice="16.28999089631971 0.0 0.0 0.0 16.28999089631971 0.0 0.0 0.0 34.45770212530097" Properties=species:S:1:pos:R:3:initial_magmoms:R:1 pbc="T T T"
Si      -1.61227017      -1.15129575      -1.21404890       0.00000000
Si      -0.09606213       1.08424611      -2.06481004       0.00000000
Si      -1.05182901       1.43475804       1.56783773       0.00000000
Si       1.91627415      -1.33669224       1.06460576       0.00000000
Si       1.12822911       3.28699620      -0.71689289       0.00000000
Si      -2.15656794      -0.26950176       2.80828848       0.00000000
Si       0.68602077       2.39919120       2.80519073       0.00000000
Si      -2.54824470      -2.75397111       0.43085935       0.00000000
Si      -0.72513306      -3.22390503      -1.89169445       0.00000000
Si       0.62641566      -2.89634571       2.69715544       0.00000000
