10
Lattice="16.28999089631971 0.0 0.0 0.0 16.28999089631971 0.0 0.0 0.0 34.45770212530097" Properties=species:S:1:pos:R:3:initial_magmoms:R:1 pbc="T T T"
Si       1.33540533       1.35154872       1.36661735       0.00000000
Si      -1.47408210       1.25429742      -1.36110067       0.00000000
Si      -1.38140829      -1.36549296       1.36217230       0.00000000
Si       1.51241247      -1.30355838      -1.35453647       0.00000000
Si      -0.22543731      -2.26799154      -2.59188947       0.00000000
Si      -2.08153620      -0.62434683      -2.70445854       0.00000000
Si       2.69149896       2.68406357      -0.00813202       0.00000000
Si       2.69208540      -0.00544086       2.72197736       0.00000000
Si      -0.01974348       2.70641130       2.72146050       0.00000000
Si      -0.02116071      -2.72191239       2.72166724       0.00000000
