10
Lattice="16.28999089631971 0.0 0.0 0.0 16.28999089631971 0.0 0.0 0.0 34.45770212530097" Properties=species:S:1:pos:R:3:initial_magmoms:R:1 pbc="T T T"
Si       1.56035394       0.99728262      -1.48802224       0.00000000
Si       1.35881406      -0.21851406       1.96760481       0.00000000
Si      -0.51328161      -2.20314105      -0.88856126       0.00000000
Si      -1.94046480       1.44425741      -0.30188410       0.00000000
Si       0.11766267       1.64432304      -3.30666632       0.00000000
Si      -2.23140420       1.38390459      -2.62791812       0.00000000
Si       2.33513892       2.91480947      -0.37083400       0.00000000
Si      -0.08135226      -1.14246657       3.62398747       0.00000000
Si      -1.12640463      -3.54859731       1.01543459       0.00000000
Si      -1.42599402       3.75560153      -0.08183709       0.00000000
