10
Lattice="16.28999089631971 0.0 0.0 0.0 16.28999089631971 0.0 0.0 0.0 34.45770212530097" Properties=species:S:1:pos:R:3:initial_magmoms:R:1 pbc="T T T"
Si       1.35560493       1.35817875       1.35739302       0.00000000
Si      -1.35756788       1.35705474      -1.35704844       0.00000000
Si       1.35703845      -1.35738054      -1.35739302       0.00000000
Si      -1.35771449      -1.35861858       1.35773760       0.00000000
Si       0.00105885       2.71420722       2.71120243       0.00000000
Si      -2.71224084      -0.00032580      -2.71416580       0.00000000
Si       2.71508688      -0.00019548      -2.71385568       0.00000000
Si       0.00130320       2.71476108      -2.71440700       0.00000000
Si      -0.00171045      -2.71472850      -2.71478604       0.00000000
Si       2.71471221       2.71489140      -0.00037903       0.00000000
