10
Lattice="16.28999089631971 0.0 0.0 0.0 16.28999089631971 0.0 0.0 0.0 34.45770212530097" Properties=species:S:1:pos:R:3:initial_magmoms:R:1 pbc="T T T"
Si       1.33744158       1.37375199      -1.36583516       0.00000000
Si      -1.37578824      -1.34506530      -1.36662769       0.00000000
Si      -1.26869778       1.35861858       1.47961456       0.00000000
Si       1.34944731      -1.47318615       1.33599477       0.00000000
Si      -0.43352577      -2.37250818       2.39412248       0.00000000
Si      -2.72427118      -2.69796935      -0.00982045       0.00000000
Si      -2.70099440       2.72178207      -0.00558215       0.00000000
Si       2.69803125       0.01366731      -2.72608817       0.00000000
Si       2.70280422       2.72593602       0.01381755       0.00000000
Si      -0.01739772      -2.70155478      -2.72877587       0.00000000
