10
Lattice="16.28999089631971 0.0 0.0 0.0 16.28999089631971 0.0 0.0 0.0 34.45770212530097" Properties=species:S:1:pos:R:3:initial_magmoms:R:1 pbc="T T T"
Si       1.37547873       1.48564963       1.10891839       0.00000000
Si      -1.93725567      -0.17395114       1.36497372       0.00000000
Si       0.99605205      -2.12402608      -0.38072336       0.00000000
Si      -0.79379541       0.73086062      -2.14140955       0.00000000
Si      -1.09035486      -3.10282702      -0.81750944       0.00000000
Si      -2.02584069      -2.53275847       1.34440246       0.00000000
Si       2.62440045       2.26136314      -0.75066146       0.00000000
Si      -3.09581676       0.24296372      -1.87474125       0.00000000
Si       2.44508013       0.08024617       2.74748641       0.00000000
Si      -3.56661405       1.10635327       0.24334043       0.00000000
