10
Lattice="16.28999089631971 0.0 0.0 0.0 16.28999089631971 0.0 0.0 0.0 34.45770212530097" Properties=species:S:1:pos:R:3:initial_magmoms:R:1 pbc="T T T"
Si       1.53499923       0.48349535       1.69786976       0.00000000
Si       1.43518877      -0.15838018      -1.84259219       0.00000000
Si      -1.60169796       1.77015122      -0.05971523       0.00000000
Si      -1.14562683      -2.18399283       0.03228688       0.00000000
Si       1.75059086       2.80332818       0.64904564       0.00000000
Si      -3.38188545      -0.97617078       0.09475873       0.00000000
Si      -3.13362585       1.01708570       1.48340491       0.00000000
Si       0.16798248       0.25325086       3.65027359       0.00000000
Si       0.48247722      -1.82748618      -3.16869760       0.00000000
Si       3.54726872      -0.79680159      -0.85048548       0.00000000
