10
Lattice="16.28999089631971 0.0 0.0 0.0 16.28999089631971 0.0 0.0 0.0 34.45770212530097" Properties=species:S:1:pos:R:3:initial_magmoms:R:1 pbc="T T T"
Si       0.84698226      -1.52032941      -1.54797868       0.00000000
Si       0.64597995       2.15200674      -0.66854871       0.00000000
Si      -2.40764571      -0.42283953      -0.10957555       0.00000000
Si       1.88860385      -0.30841857       1.61077469       0.00000000
Si      -0.77714703       2.96337906       1.22128502       0.00000000
Si       0.49112721      -1.67822838       2.94475829       0.00000000
Si       2.97414253       1.43441595      -1.02056879       0.00000000
Si       0.94882734      -0.38507931      -3.58105315       0.00000000
Si      -2.06700552       1.40372559       2.85383470       0.00000000
Si       3.75892469      -0.57752937       0.01564381       0.00000000
