10
Lattice="16.28999089631971 0.0 0.0 0.0 16.28999089631971 0.0 0.0 0.0 34.45770212530097" Properties=species:S:1:pos:R:3:initial_magmoms:R:1 pbc="T T T"
Si      -1.63994688       1.48496382      -0.74814605       0.00000000
Si       1.96475875      -0.10770948      -1.33661501       0.00000000
Si       0.23985396      -1.06914528       2.15033410       0.00000000
Si      -0.93004497      -1.86917976      -1.30818739       0.00000000
Si       2.42689953      -2.23599798      -0.58261115       0.00000000
Si      -2.28768615       0.39206772      -2.72336601       0.00000000
Si       2.56801654      -1.78673607       1.79831402       0.00000000
Si      -0.45139590       3.04096833      -2.05974475       0.00000000
Si       0.54270135      -3.60623133      -0.76217034       0.00000000
Si       1.52085853      -0.28898460      -3.63542744       0.00000000
