10
Lattice="16.28999089631971 0.0 0.0 0.0 16.28999089631971 0.0 0.0 0.0 34.45770212530097" Properties=species:S:1:pos:R:3:initial_magmoms:R:1 pbc="T T T"
Si      -1.72687032      -1.53383382      -0.01378309       0.00000000
Si       0.64773927       1.09289610       1.97521996       0.00000000
Si      -0.70946208       1.53497412      -1.65445303       0.00000000
Si       1.35764118      -2.26124748       1.41517862       0.00000000
Si       1.98558810      -2.22005007      -0.96977811       0.00000000
Si       1.83629025       2.64890061       0.66362126       0.00000000
Si       0.53273187      -1.62416187      -2.85337499       0.00000000
Si      -0.86576463      -2.98491444       1.61413750       0.00000000
Si      -3.51380187      -0.07877844       0.25322979       0.00000000
Si      -0.13528845       3.52082286      -0.43692391       0.00000000
