10
Lattice="16.28999089631971 0.0 0.0 0.0 16.28999089631971 0.0 0.0 0.0 34.45770212530097" Properties=species:S:1:pos:R:3:initial_magmoms:R:1 pbc="T T T"
Si      -1.33540533      -1.35154872      -1.36661735       0.00000000
Si       1.35609363       1.33251485      -1.37474937       0.00000000
Si      -1.35514881       1.35486258       1.35484315       0.00000000
Si       1.35668007      -1.35698958       1.35536001       0.00000000
Si       0.17700714      -2.65510710      -2.72115382       0.00000000
Si      -0.04479750       2.62472855      -2.75835438       0.00000000
Si      -0.00003258       2.71384625       2.71223617       0.00000000
Si      -2.71295289       2.71350253      -0.00599564       0.00000000
Si      -2.71459818      -0.00094482       2.71230508       0.00000000
Si       2.71559187      -0.00133578       2.71233954       0.00000000
