10
Lattice="16.28999089631971 0.0 0.0 0.0 16.28999089631971 0.0 0.0 0.0 34.45770212530097" Properties=species:S:1:pos:R:3:initial_magmoms:R:1 pbc="T T T"
Si      -1.34469063      -1.34488611      -1.35298243       0.00000000
Si       1.30051215      -1.41828885       1.32844853       0.00000000
Si      -1.26897471       1.29570660       1.49412126       0.00000000
Si       1.37015817       1.37083608      -1.35053593       0.00000000
Si       0.58303539       2.05293815       2.80975152       0.00000000
Si       2.25896918       0.24351921       2.71085786       0.00000000
Si      -2.68521102       2.71894828       0.03452664       0.00000000
Si      -2.70145215       0.00881289      -2.71006533       0.00000000
Si      -2.70185940      -2.71300176       0.02250089       0.00000000
Si       0.01220121      -2.70508482      -2.70999641       0.00000000
