10
Lattice="16.28999089631971 0.0 0.0 0.0 16.28999089631971 0.0 0.0 0.0 34.45770212530097" Properties=species:S:1:pos:R:3:initial_magmoms:R:1 pbc="T T T"
Si       0.71133380       1.35358497      -1.81299301       0.00000000
Si       0.97720289      -2.03322006       0.91843611       0.00000000
Si      -1.52318898      -0.40767354      -1.92280977       0.00000000
Si      -0.84600356       1.99427067       1.42958194       0.00000000
Si      -0.12637782      -1.72773369       2.99489285       0.00000000
Si      -3.07549566       0.56369916       1.66117229       0.00000000
Si      -2.39732667      -1.64041929       2.40094511       0.00000000
Si       1.12089698       3.51538200       1.08166233       0.00000000
Si       3.87970622      -0.37475145      -0.43733740       0.00000000
Si       0.91344383       3.65702355      -1.24854108       0.00000000
