10
Lattice="16.28999089631971 0.0 0.0 0.0 16.28999089631971 0.0 0.0 0.0 34.45770212530097" Properties=species:S:1:pos:R:3:initial_magmoms:R:1 pbc="T T T"
Si      -1.44016632      -0.92395251       1.65638267       0.00000000
Si      -1.35881406       0.21851406      -1.96760481       0.00000000
Si       0.24825960       1.99325647       1.38864617       0.00000000
Si       2.23625862      -1.20782205      -0.06247185       0.00000000
Si       0.49120866      -2.45021148       1.26060128       0.00000000
Si       1.78018749       2.74632200      -0.15447396       0.00000000
Si       3.38188545       0.97617078      -0.09475873       0.00000000
Si       0.20153988       1.21579668      -3.45562705       0.00000000
Si      -1.86385293       0.79893688       3.33044214       0.00000000
Si      -1.87209567      -1.98462699      -2.85616607       0.00000000
