10
Lattice="16.28999089631971 0.0 0.0 0.0 16.28999089631971 0.0 0.0 0.0 34.45770212530097" Properties=species:S:1:pos:R:3:initial_magmoms:R:1 pbc="T T T"
Si       2.07122463       0.98013672       0.60969492       0.00000000
Si       0.47390868      -2.26067733       0.54660283       0.00000000
Si      -0.17734923       0.56783682      -2.32224367       0.00000000
Si      -1.94758288       0.81651996       1.19337426       0.00000000
Si       1.30375386       2.85822711       1.75555199       0.00000000
Si       0.47964276      -2.32497396       2.96935968       0.00000000
Si      -1.13063840      -1.37512035      -3.41403658       0.00000000
Si       2.40678234      -3.00177459      -0.68395131       0.00000000
Si      -1.50368266       0.99779508       3.49218669       0.00000000
Si       2.00624382       1.24142832      -3.14912561       0.00000000
