10
Lattice="16.28999089631971 0.0 0.0 0.0 16.28999089631971 0.0 0.0 0.0 34.45770212530097" Properties=species:S:1:pos:R:3:initial_magmoms:R:1 pbc="T T T"
Si       1.35537687       1.33949412       1.38872887       0.00000000
Si      -1.35933371      -1.37585340       1.38776405       0.00000000
Si       1.49237577      -1.24654338      -1.44569093       0.00000000
Si      -1.32221369       1.52511867      -1.44995680       0.00000000
Si       2.72508894       2.69301393      -0.00165742       0.00000000
Si      -2.70802421       2.71414206       0.02795210       0.00000000
Si       2.70850572      -2.71795392       0.02807271       0.00000000
Si      -2.73034151      -2.71119357       0.02722849       0.00000000
Si      -0.00280188       2.70014895       2.74922308       0.00000000
Si       2.71410948      -0.01703934       2.75011898       0.00000000
