10
Lattice="16.28999089631971 0.0 0.0 0.0 16.28999089631971 0.0 0.0 0.0 34.45770212530097" Properties=species:S:1:pos:R:3:initial_magmoms:R:1 pbc="T T T"
Si      -1.90023243       0.65438559       1.31011702       0.00000000
Si      -0.54256484      -0.34109631      -2.32930751       0.00000000
Si       1.13035007      -2.12014350       0.32779630       0.00000000
Si       1.58026358       1.67358573       0.95871718       0.00000000
Si       1.42433570       1.18001502      -2.67722712       0.00000000
Si       0.90374965       1.33967331       3.25194746       0.00000000
Si       3.31394312      -1.44655200      -0.49908564       0.00000000
Si      -1.26808269       0.41210442       3.57657365       0.00000000
Si      -2.12700552       3.03098256       1.18765428       0.00000000
Si      -2.77205694      -1.77166782      -2.09771716       0.00000000
