10
Lattice="16.28999089631971 0.0 0.0 0.0 16.28999089631971 0.0 0.0 0.0 34.45770212530097" Properties=species:S:1:pos:R:3:initial_magmoms:R:1 pbc="T T T"
Si       0.88821225       0.53590842      -2.09568416       0.00000000
Si      -1.91922427      -1.32452361      -0.35904946       0.00000000
Si      -0.76489695       1.97587926       1.07973270       0.00000000
Si       1.60088346      -0.81192618       1.60852089       0.00000000
Si       0.06893928      -1.02613968       3.42957701       0.00000000
Si       0.92074338       3.56065191       0.42052203       0.00000000
Si      -0.81949126       1.70533494      -3.24932867       0.00000000
Si      -1.45708348      -3.45281211       0.39495440       0.00000000
Si      -2.36312449      -1.50579873      -2.65786188       0.00000000
Si       1.65568302      -1.34218197      -3.24154122       0.00000000
