10
Lattice="16.28999089631971 0.0 0.0 0.0 16.28999089631971 0.0 0.0 0.0 34.45770212530097" Properties=species:S:1:pos:R:3:initial_magmoms:R:1 pbc="T T T"
Si       0.88841262      -2.34831753      -0.20943403       0.00000000
Si      -1.92600158       0.05551632       1.64239283       0.00000000
Si       1.04714238       2.01306933       1.15357560       0.00000000
Si       0.05457639       0.65370141      -2.55927834       0.00000000
Si      -0.18700757       1.06218945       2.99488393       0.00000000
Si       2.42035680      -2.13410403      -2.03049015       0.00000000
Si       0.81947334      -1.32217785      -3.63901104       0.00000000
Si       1.43253120      -3.41418852       1.90795715       0.00000000
Si      -2.01297389       1.72532277      -3.34164090       0.00000000
Si       1.74021672       2.23847406      -3.21848901       0.00000000
