10
Lattice="16.28999089631971 0.0 0.0 0.0 16.28999089631971 0.0 0.0 0.0 34.45770212530097" Properties=species:S:1:pos:R:3:initial_magmoms:R:1 pbc="T T T"
Si       0.34554348       0.15579756       2.37272424       0.00000000
Si       1.04448222      -2.19747213       0.03607723       0.00000000
Si       1.41612228       2.06612327      -0.05161767       0.00000000
Si      -1.93900359       0.26715600      -1.68942762       0.00000000
Si      -0.24713559       1.33444422      -2.99392804       0.00000000
Si      -2.80860402      -1.73314197       0.13421282       0.00000000
Si       2.70861975      -0.11016927       2.10484991       0.00000000
Si      -0.93177171      -3.19464819       0.93184016       0.00000000
Si       3.51002259       1.03752639       0.09296693       0.00000000
Si       0.82855827       3.07702529      -1.98914088       0.00000000
