10
Lattice="16.28999089631971 0.0 0.0 0.0 16.28999089631971 0.0 0.0 0.0 34.45770212530097" Properties=species:S:1:pos:R:3:initial_magmoms:R:1 pbc="T T T"
Si      -0.95845703      -1.66180806      -1.38240932       0.00000000
Si       1.69186800       1.06728822      -1.30450042       0.00000000
Si      -1.67593379       1.80941894       0.09889366       0.00000000
Si       1.93900359      -0.26715600       1.68942762       0.00000000
Si      -0.86960044      -2.00029797       1.82364045       0.00000000
Si      -2.25896918      -0.24351921      -2.71085786       0.00000000
Si       0.47681644       2.48440812      -2.70365619       0.00000000
Si      -3.52794389       1.05218739      -1.21673660       0.00000000
Si      -1.68735308      -3.52035045       0.09344934       0.00000000
Si       2.76756186       2.80986929      -0.29971326       0.00000000
