10
Lattice="16.28999089631971 0.0 0.0 0.0 16.28999089631971 0.0 0.0 0.0 34.45770212530097" Properties=species:S:1:pos:R:3:initial_magmoms:R:1 pbc="T T T"
Si       1.69160247      -1.52516754      -0.62396042       0.00000000
Si       0.24788493       1.72191883      -1.60945125       0.00000000
Si      -1.64672352      -1.69507224      -0.50104973       0.00000000
Si       0.01936881       1.14660001       2.14837001       0.00000000
Si       2.55912642       1.38589360      -2.05243972       0.00000000
Si      -3.36986506      -1.27835775       0.96288657       0.00000000
Si       3.61061334      -0.86270211       0.60170073       0.00000000
Si      -2.25404567       1.95088130       2.41386676       0.00000000
Si       0.85020768      -3.74536422      -0.44991447       0.00000000
Si       1.29259521      -0.16739604       3.67129792       0.00000000
