10
Lattice="16.28999089631971 0.0 0.0 0.0 16.28999089631971 0.0 0.0 0.0 34.45770212530097" Properties=species:S:1:pos:R:3:initial_magmoms:R:1 pbc="T T T"
Si       0.33809895      -2.21803011      -0.60986721       0.00000000
Si       2.02154013       0.94408436      -0.88928487       0.00000000
Si      -2.11207995       0.63842141      -0.99210671       0.00000000
Si      -0.09459603      -0.22768533       2.58519055       0.00000000
Si      -2.01226949       1.28029693       2.54835524       0.00000000
Si       0.75906513      -1.84153563      -2.93989833       0.00000000
Si       1.65765411       3.17458610      -0.50873380       0.00000000
Si       2.04648012       0.11424177      -3.08475859       0.00000000
Si      -3.54726872       0.79680159       0.85048548       0.00000000
Si       2.56531662      -2.74491387       0.12728682       0.00000000
