10
Lattice="16.28999089631971 0.0 0.0 0.0 16.28999089631971 0.0 0.0 0.0 34.474598006748145" Properties=species:S:1:pos:R:3:initial_magmoms:R:1 pbc="T T T"
Si       1.35374241       1.36345671       1.37153473       0.00000000
Si      -1.36030421      -1.35324288       1.37842965       0.00000000
Si      -1.40852261       1.38010509      -1.32377014       0.00000000
Si       1.49040085      -1.26346054      -1.41742734       0.00000000
Si      -2.70224183      -2.70592280       0.02184656       0.00000000
Si       2.67908541       0.33531336      -2.70875828       0.00000000
Si       2.73404787      -2.70645722      -0.00315787       0.00000000
Si      -0.00375894      -2.70924133       2.73417845       0.00000000
Si       2.70492135       2.74261698      -0.00180302       0.00000000
Si       2.71407633       0.00384444       2.73428187       0.00000000
