10
Lattice="16.28999089631971 0.0 0.0 0.0 16.28999089631971 0.0 0.0 0.0 34.474598006748145" Properties=species:S:1:pos:R:3:initial_magmoms:R:1 pbc="T T T"
Si       0.79162884      -1.24123284      -1.85356227       0.00000000
Si      -2.30339690      -0.73270791      -0.01110083       0.00000000
Si      -0.05512536       2.15018226      -1.14948716       0.00000000
Si       1.26964260       0.23451084       2.23412757       0.00000000
Si       3.00467421      -0.50580450      -2.17124587       0.00000000
Si      -0.52987135      -0.46716462      -3.71936303       0.00000000
Si       1.83133809      -2.08637433       2.66168178       0.00000000
Si      -2.33830637       2.49813666      -1.77237455       0.00000000
Si      -3.41263187       0.35922708      -1.78661257       0.00000000
Si      -2.75539553      -3.03648858      -0.30506589       0.00000000
