10
Lattice="16.28999089631971 0.0 0.0 0.0 16.28999089631971 0.0 0.0 0.0 34.474598006748145" Properties=species:S:1:pos:R:3:initial_magmoms:R:1 pbc="T T T"
Si      -1.68735892       1.75541040       0.16897836       0.00000000
Si      -0.98879160      -1.76849127       1.36844722       0.00000000
Si       1.82581578       0.90274293       1.37274276       0.00000000
Si       0.92730825      -0.51745185      -2.38343714       0.00000000
Si      -2.22404831      -0.38397159       2.88253449       0.00000000
Si       0.51069150       2.36066850       2.86252887       0.00000000
Si       1.48900374      -2.83833702      -1.95588294       0.00000000
Si      -3.44757392       0.89824689      -1.41204585       0.00000000
Si       3.52983123       1.72827126      -0.17316600       0.00000000
Si      -3.49090532       1.05453315       1.58076949       0.00000000
