10
Lattice="16.28999089631971 0.0 0.0 0.0 16.28999089631971 0.0 0.0 0.0 34.474598006748145" Properties=species:S:1:pos:R:3:initial_magmoms:R:1 pbc="T T T"
Si       1.52050860      -0.41482159      -1.70156368       0.00000000
Si      -2.30285214       0.25265464      -0.56372894       0.00000000
Si       0.94855041       1.75489726       1.31334502       0.00000000
Si       0.25656750      -1.98718356       1.41587253       0.00000000
Si      -1.45691244       2.02444789       2.02821068       0.00000000
Si      -3.32044446       0.48353281       1.55942484       0.00000000
Si       0.59368905      -2.08021575      -3.10585274       0.00000000
Si       2.33658873      -3.02141937       0.38421961       0.00000000
Si       1.75023018       1.42272787      -3.13539749       0.00000000
Si      -3.06998082      -1.69466403      -1.73534881       0.00000000
