10
Lattice="16.28999089631971 0.0 0.0 0.0 16.28999089631971 0.0 0.0 0.0 34.474598006748145" Properties=species:S:1:pos:R:3:initial_magmoms:R:1 pbc="T T T"
Si      -1.37213928      -1.33428132       1.34644065       0.00000000
Si      -1.35177678       1.35747828      -1.35761043       0.00000000
Si       1.36101321      -1.35777150      -1.35736911       0.00000000
Si       1.36037790       1.38823380       1.36709095       0.00000000
Si       0.05455521      -2.50105257       2.73697434       0.00000000
Si      -2.71109583      -0.00047241      -2.71466926       0.00000000
Si      -2.71129131       2.71521720       0.00544699       0.00000000
Si      -2.71230129      -2.71477737       0.00193058       0.00000000
Si       2.71536381       2.71308321       0.00113766       0.00000000
Si       0.00293220      -2.71472850      -2.71446241       0.00000000
