10
Lattice="16.28999089631971 0.0 0.0 0.0 16.28999089631971 0.0 0.0 0.0 34.474598006748145" Properties=species:S:1:pos:R:3:initial_magmoms:R:1 pbc="T T T"
Si      -1.43783685      -0.15983748      -1.82036322       0.00000000
Si       2.02818645       0.34766118      -1.18392731       0.00000000
Si       0.07022619      -1.91433564       1.40611621       0.00000000
Si      -0.51220647       2.05534188       1.08988055       0.00000000
Si       3.42107919       1.33807689       0.41417805       0.00000000
Si       0.22173948      -3.76070940      -0.02499410       0.00000000
Si       2.32883469      -2.10657393       2.08640384       0.00000000
Si      -1.31432607       1.91371662      -2.98946644       0.00000000
Si      -3.67984584      -0.40573503      -1.07219507       0.00000000
Si      -2.91325473       2.26719333       1.28031834       0.00000000
