10
Lattice="16.28999089631971 0.0 0.0 0.0 16.28999089631971 0.0 0.0 0.0 34.474598006748145" Properties=species:S:1:pos:R:3:initial_magmoms:R:1 pbc="T T T"
Si      -2.13604254       0.58712418      -0.70745362       0.00000000
Si       1.59936849       0.33270696      -1.70459745       0.00000000
Si       0.80765820       1.10472264       1.94778140       0.00000000
Si      -0.77380758      -2.12346666       0.82397783       0.00000000
Si      -2.89245240       1.38727269       1.45844868       0.00000000
Si       0.72848880      -2.32652151       2.64144518       0.00000000
Si      -0.01137042      -0.29388789       3.64675949       0.00000000
Si       1.75088178      -1.51366680      -3.13570776       0.00000000
Si       0.28238715       3.38406831       1.93509474       0.00000000
Si      -2.98269900      -1.12047507      -2.36178708       0.00000000
