10
Lattice="16.28999089631971 0.0 0.0 0.0 16.28999089631971 0.0 0.0 0.0 34.474598006748145" Properties=species:S:1:pos:R:3:initial_magmoms:R:1 pbc="T T T"
Si       0.52527105      -2.27934567       0.01268666       0.00000000
Si       0.88181028       0.88019757       2.00380265       0.00000000
Si      -2.35770057       0.31293090      -0.15068855       0.00000000
Si       1.43889570       0.92242125      -1.68894597       0.00000000
Si       1.30978116       3.15540558      -0.91133651       0.00000000
Si       2.86594857      -2.06667972       0.21288076       0.00000000
Si      -2.40127632       2.04227730      -1.73807230       0.00000000
Si       3.46201596      -0.16576704      -1.06188716       0.00000000
Si       1.59019722       3.06398610       1.44007371       0.00000000
Si      -3.17483955      -1.99679562      -0.47664606       0.00000000
