10
Lattice="16.28999089631971 0.0 0.0 0.0 16.28999089631971 0.0 0.0 0.0 34.474598006748145" Properties=species:S:1:pos:R:3:initial_magmoms:R:1 pbc="T T T"
Si       0.81902862       1.39861053      -1.69897809       0.00000000
Si       0.78351642       0.18911061       2.21568365       0.00000000
Si      -2.31762717       0.46061604      -0.18916222       0.00000000
Si       0.73985922      -2.03263362      -1.00531431       0.00000000
Si      -0.76243716      -1.82957877      -2.82278166       0.00000000
Si       0.01137042       0.29388789      -3.64675949       0.00000000
Si       3.15436302      -0.04069242       2.14114953       0.00000000
Si      -0.06182055      -1.70046423       3.44342820       0.00000000
Si       3.15970614       1.61127648      -1.49878399       0.00000000
Si       3.10837635      -1.94825142      -1.33306450       0.00000000
