10
Lattice="16.28999089631971 0.0 0.0 0.0 16.28999089631971 0.0 0.0 0.0 34.474598006748145" Properties=species:S:1:pos:R:3:initial_magmoms:R:1 pbc="T T T"
Si      -1.93707648      -0.25632315       1.44245246       0.00000000
Si       0.16900875      -2.17279278      -1.14055824       0.00000000
Si      -0.96053985       1.94338071      -1.25987489       0.00000000
Si       2.24710776       0.30068082       1.14941821       0.00000000
Si      -0.63731367      -1.48454028       3.01598849       0.00000000
Si       1.49727906       1.89045450       2.73562983       0.00000000
Si       2.53985535      -2.40259581      -1.21509236       0.00000000
Si       0.56106018       2.19625038      -3.06410398       0.00000000
Si      -3.68103501      -1.50511455       0.24625219       0.00000000
Si       3.64599522       1.79996355      -0.27686565       0.00000000
