10
Lattice="16.28999089631971 0.0 0.0 0.0 16.28999089631971 0.0 0.0 0.0 34.474598006748145" Properties=species:S:1:pos:R:3:initial_magmoms:R:1 pbc="T T T"
Si      -0.26679762       2.03812335       1.17999720       0.00000000
Si      -0.12351078      -2.07355410       1.16910322       0.00000000
Si      -2.01719070      -0.79509861      -1.30607088       0.00000000
Si      -1.10120400       2.21187249      -2.15290537       0.00000000
Si       3.27697785       0.16329096      -0.01441039       0.00000000
Si       0.74481138       0.98953605      -3.23103008       0.00000000
Si      -3.52359216      -0.95467545       0.47843874       0.00000000
Si      -0.28082331       3.69136287      -0.44137852       0.00000000
Si       2.89342980      -0.15104088      -2.34803171       0.00000000
Si       0.49076883      -3.67653897      -0.68866495       0.00000000
