10
Lattice="16.28999089631971 0.0 0.0 0.0 16.28999089631971 0.0 0.0 0.0 34.474598006748145" Properties=species:S:1:pos:R:3:initial_magmoms:R:1 pbc="T T T"
Si      -0.12911454       2.23298433       0.77760947       0.00000000
Si      -0.70434702      -0.00410508      -2.26698188       0.00000000
Si       2.02312026      -1.08818829       0.62705881       0.00000000
Si      -1.43889570      -0.92242125       1.68894597       0.00000000
Si       3.19381740       0.79457733       1.42138847       0.00000000
Si      -0.55708542      -0.04222368       3.69274863       0.00000000
Si      -0.91362465      -3.20176692       1.70163263       0.00000000
Si      -3.10539528       0.20774637      -2.07654410       0.00000000
Si       0.15130152       2.14156485       3.12901969       0.00000000
Si       1.42705287      -2.98910097       1.90182674       0.00000000
