10
Lattice="16.28999089631971 0.0 0.0 0.0 16.28999089631971 0.0 0.0 0.0 34.474598006748145" Properties=species:S:1:pos:R:3:initial_magmoms:R:1 pbc="T T T"
Si       1.35731538       1.35452979      -1.35616249       0.00000000
Si      -1.36078515       1.35404109       1.35819650       0.00000000
Si      -1.35746199      -1.36003581      -1.35623144       0.00000000
Si       1.35900954      -1.36197432       1.36019602       0.00000000
Si      -2.70503269       0.00605988       2.71149760       0.00000000
Si      -0.00019548       2.71223613      -2.71360055       0.00000000
Si      -2.71529702       2.71122615       0.00089634       0.00000000
Si       2.71456560      -0.00268785      -2.71384187       0.00000000
Si      -2.71420559      -2.71463076       0.00144793       0.00000000
Si      -2.71538499      -0.00262269      -2.71346265       0.00000000
