10
Lattice="16.28999089631971 0.0 0.0 0.0 16.28999089631971 0.0 0.0 0.0 34.474598006748145" Properties=species:S:1:pos:R:3:initial_magmoms:R:1 pbc="T T T"
Si      -1.35417141       1.35585321      -1.36167843       0.00000000
Si      -1.35378045      -1.34667801       1.37395140       0.00000000
Si       1.36203948      -1.35746199      -1.35950653       0.00000000
Si       1.35791811       1.36078093       1.38015683       0.00000000
Si       0.04597038      -2.72134224       2.66019937       0.00000000
Si      -2.71205694       2.71385603      -0.00151688       0.00000000
Si      -2.71161711      -0.00112505      -2.71780645       0.00000000
Si      -2.71402803      -2.71753038      -0.00365431       0.00000000
Si       0.00317655       2.71390490      -2.71790988       0.00000000
Si       2.72171691       2.71255283      -0.00151688       0.00000000
