10
Lattice="16.28999089631971 0.0 0.0 0.0 16.28999089631971 0.0 0.0 0.0 34.474598006748145" Properties=species:S:1:pos:R:3:initial_magmoms:R:1 pbc="T T T"
Si      -1.41977124      -1.00178613      -1.54887560       0.00000000
Si       2.12757174      -0.50849235      -0.86776059       0.00000000
Si      -0.01699047      -1.08659187       2.10174504       0.00000000
Si      -0.44973432       2.35167883       0.26024889       0.00000000
Si      -3.33703908      -1.34113941      -0.28920756       0.00000000
Si      -2.44110537       2.17499097       1.54194621       0.00000000
Si       0.77840136       0.60277887       3.49220978       0.00000000
Si       1.64566467      -2.69825931       2.04537904       0.00000000
Si       3.18028041       1.66547724      -1.33651196       0.00000000
Si       1.71175320      -2.60877834      -2.23795425       0.00000000
