10
Lattice="16.28999089631971 0.0 0.0 0.0 16.28999089631971 0.0 0.0 0.0 34.474598006748145" Properties=species:S:1:pos:R:3:initial_magmoms:R:1 pbc="T T T"
Si      -1.66265514       1.61166744       0.05636600       0.00000000
Si       0.37629900       0.16837344       2.30990278       0.00000000
Si      -0.37901943      -2.03405085      -1.11270275       0.00000000
Si       1.72470375       1.03465935      -1.24005198       0.00000000
Si       2.07389619      -2.41250013      -0.17116647       0.00000000
Si       1.08481626      -1.68562404      -3.03280103       0.00000000
Si       0.48190707       2.18976696      -2.91313963       0.00000000
Si      -0.86726331       3.30103818       1.44683074       0.00000000
Si      -3.42072081       0.61807518       1.35312873       0.00000000
Si      -0.60895278      -1.72265121       3.29036090       0.00000000
