10
Lattice="16.28999089631971 0.0 0.0 0.0 16.28999089631971 0.0 0.0 0.0 34.474598006748145" Properties=species:S:1:pos:R:3:initial_magmoms:R:1 pbc="T T T"
Si      -0.05918157       1.34164440      -1.93899037       0.00000000
Si       1.82089620       0.19681578       1.51281516       0.00000000
Si       1.18438074      -1.79102034      -1.07591833       0.00000000
Si      -1.82109168       0.23900688       1.55177147       0.00000000
Si       2.75913504       1.97242971       0.19429894       0.00000000
Si      -0.85457340      -0.34772634      -3.32945511       0.00000000
Si      -2.61263907      -1.34131860      -2.03269238       0.00000000
Si      -0.89427213       1.90440104       2.95606053       0.00000000
Si      -2.06474121      -2.98471896      -0.30785833       0.00000000
Si       0.19912896      -3.68204499      -0.09546022       0.00000000
