10
Lattice="16.28999089631971 0.0 0.0 0.0 16.28999089631971 0.0 0.0 0.0 34.474598006748145" Properties=species:S:1:pos:R:3:initial_magmoms:R:1 pbc="T T T"
Si       0.45569646      -1.24036947      -1.95526239       0.00000000
Si       1.78134408       1.05327882       1.22250927       0.00000000
Si      -1.00683603      -1.79587476       1.33366233       0.00000000
Si      -2.00191068       1.63385442      -0.31451193       0.00000000
Si       0.38169099       2.28493642       2.71593590       0.00000000
Si      -2.33482941      -0.45875898       2.73633453       0.00000000
Si      -0.57769227      -3.40477290      -1.48523546       0.00000000
Si       2.78739819      -1.54696356      -2.08257715       0.00000000
Si      -0.52263207      -0.02295261      -3.78882939       0.00000000
Si      -2.52535725      -2.97631332      -0.16123778       0.00000000
