10
Lattice="16.28999089631971 0.0 0.0 0.0 16.28999089631971 0.0 0.0 0.0 34.474598006748145" Properties=species:S:1:pos:R:3:initial_magmoms:R:1 pbc="T T T"
Si      -1.66162887      -0.09861966       1.58672873       0.00000000
Si       0.83048049       2.10657393      -0.90544135       0.00000000
Si       0.32322618      -2.24908211      -0.92605717       0.00000000
Si      -1.13626008      -0.78091002      -2.11980974       0.00000000
Si       0.63574983      -0.46889136       2.52750657       0.00000000
Si       2.77705404      -0.73200744       1.57290441       0.00000000
Si       2.29482117      -2.67935802       0.35467486       0.00000000
Si      -3.30678855      -1.56288052       0.67070368       0.00000000
Si      -3.45468546      -0.37199844      -1.39580830       0.00000000
Si      -2.70692559       1.89926739      -2.06640856       0.00000000
