10
Lattice="16.28999089631971 0.0 0.0 0.0 16.28999089631971 0.0 0.0 0.0 34.474598006748145" Properties=species:S:1:pos:R:3:initial_magmoms:R:1 pbc="T T T"
Si      -1.00976823       1.83171276       0.97721750       0.00000000
Si      -0.30012696       0.65479284      -2.19506783       0.00000000
Si      -1.06109802      -1.72781514       1.14293699       0.00000000
Si       2.27421432      -0.52009083       0.42600285       0.00000000
Si       0.96316254       2.69798238      -1.95746877       0.00000000
Si       0.08495235      -1.39501044       3.25209407       0.00000000
Si      -0.00592956      -3.58171814       0.14275939       0.00000000
Si       2.28040452      -0.36833319       2.78465274       0.00000000
Si      -0.10984347      -1.36961433      -3.36568794       0.00000000
Si       2.19763503      -2.91678477       0.69473249       0.00000000
