10
Lattice="16.28999089631971 0.0 0.0 0.0 16.28999089631971 0.0 0.0 0.0 34.474598006748145" Properties=species:S:1:pos:R:3:initial_magmoms:R:1 pbc="T T T"
Si      -1.05516846       1.85390300       1.00017760       0.00000000
Si       2.20356459       0.66493336       0.55197310       0.00000000
Si      -0.93823884      -1.77561393       1.31851621       0.00000000
Si      -0.49682871       0.10182879      -2.37581825       0.00000000
Si      -2.75913504      -1.97242971      -0.19429894       0.00000000
Si       0.00592956       3.58171814      -0.14275939       0.00000000
Si      -2.81831661      -0.63078531      -2.13328932       0.00000000
Si       2.28244077      -0.36908839       2.74952310       0.00000000
Si       0.76540194      -3.50517210      -0.93822671       0.00000000
Si       3.60942417      -0.20314444      -1.10487701       0.00000000
