10
Lattice="16.28999089631971 0.0 0.0 0.0 16.28999089631971 0.0 0.0 0.0 34.474598006748145" Properties=species:S:1:pos:R:3:initial_magmoms:R:1 pbc="T T T"
Si      -0.27873819       2.10614387      -1.01586355       0.00000000
Si       1.91282067      -0.44965222      -1.37567513       0.00000000
Si      -2.01912921      -1.14495635      -0.65188054       0.00000000
Si       0.35458443       0.79050320       2.31955567       0.00000000
Si      -1.90332360       1.82279561       2.43025367       0.00000000
Si      -1.30785894      -1.85617775      -2.80668202       0.00000000
Si       2.05475544      -2.75704733      -1.50030087       0.00000000
Si      -1.42478856       1.77333917      -3.12502063       0.00000000
Si      -1.37880189       3.68089817       0.34919340       0.00000000
Si       1.91671398       3.13282112      -1.48330488       0.00000000
