10
Lattice="16.28999089631971 0.0 0.0 0.0 16.28999089631971 0.0 0.0 0.0 34.474598006748145" Properties=species:S:1:pos:R:3:initial_magmoms:R:1 pbc="T T T"
Si      -0.35458443      -0.79050320      -2.31955567       0.00000000
Si      -2.25790803       1.03229241       0.11069800       0.00000000
Si       1.08874215       2.22123435       0.50636318       0.00000000
Si       0.47988711      -1.47580462       2.01721328       0.00000000
Si      -0.63332262       1.31564067      -3.33541922       0.00000000
Si       2.74018977       1.53713580       2.19137905       0.00000000
Si       1.47584142       0.07460006       3.53618702       0.00000000
Si      -1.73338632       2.89039497      -1.97036228       0.00000000
Si       3.19692879       2.45615244      -0.78274619       0.00000000
Si       1.55823624      -1.24015542      -3.69523080       0.00000000
