10
Lattice="16.28999089631971 0.0 0.0 0.0 16.28999089631971 0.0 0.0 0.0 34.474598006748145" Properties=species:S:1:pos:R:3:initial_magmoms:R:1 pbc="T T T"
Si      -1.35498591      -1.32484941       1.36595329       0.00000000
Si      -1.35319401       1.35923760      -1.35878257       0.00000000
Si       1.36078515      -1.35669636      -1.35933416       0.00000000
Si       1.34900748       1.38401469       1.38174266       0.00000000
Si       0.03683169      -2.61615771       2.73849122       0.00000000
Si      -2.70984150       2.71472850       0.00065502       0.00000000
Si      -2.71181259       0.00169416      -2.71556560       0.00000000
Si      -2.71536381      -2.71308321      -0.00113766       0.00000000
Si       0.00317655      -2.71324611      -2.71580692       0.00000000
Si       2.71358820       2.71604799       0.00489540       0.00000000
