10
Lattice="16.28999089631971 0.0 0.0 0.0 16.28999089631971 0.0 0.0 0.0 34.474598006748145" Properties=species:S:1:pos:R:3:initial_magmoms:R:1 pbc="T T T"
Si       0.93374280       1.77420906      -1.35743806       0.00000000
Si      -1.80610488      -0.96635538      -1.36695305       0.00000000
Si       1.67244543      -1.79735715       0.19664322       0.00000000
Si      -0.95663025       2.00068893       1.08191691       0.00000000
Si      -1.28088270      -0.48058758       2.05375637       0.00000000
Si       2.21996862       0.30954258      -2.75355663       0.00000000
Si      -0.48852081      -2.43147798      -2.71880622       0.00000000
Si       3.42002034      -1.02079656      -1.27849118       0.00000000
Si       0.66681486      -3.69525618      -0.95963545       0.00000000
Si       2.65101831       2.91242394      -0.08677261       0.00000000
