10
Lattice="16.28999089631971 0.0 0.0 0.0 16.28999089631971 0.0 0.0 0.0 34.474598006748145" Properties=species:S:1:pos:R:3:initial_magmoms:R:1 pbc="T T T"
Si      -1.35638685      -1.35725022       1.35619697       0.00000000
Si       1.35710361      -1.35715248      -1.35809307       0.00000000
Si      -1.35747828       1.35752715      -1.35840334       0.00000000
Si       1.35863487       1.35923760       1.35667961       0.00000000
Si       0.00174303       2.70987408       2.71725486       0.00000000
Si      -2.71303434      -0.00175932       2.71563455       0.00000000
Si      -0.00016290       2.71404432      -2.71494506       0.00000000
Si       2.71368594      -0.00063531      -2.71553113       0.00000000
Si      -2.71472850       2.71474479      -0.00072397       0.00000000
Si      -2.71500543      -2.71479366      -0.00058607       0.00000000
