10
Lattice="16.28999089631971 0.0 0.0 0.0 16.28999089631971 0.0 0.0 0.0 34.474598006748145" Properties=species:S:1:pos:R:3:initial_magmoms:R:1 pbc="T T T"
Si       1.99863639       1.16007606       0.62254264       0.00000000
Si      -1.01872773       1.77510501      -1.25053227       0.00000000
Si       0.20585673      -2.25245088      -0.81518680       0.00000000
Si      -1.46383569      -0.34842681       1.92009828       0.00000000
Si       0.98907993      -0.72687609       2.86163456       0.00000000
Si       0.63988749       2.72028339       1.79274905       0.00000000
Si      -3.33791874      -0.37761849       0.37922079       0.00000000
Si      -1.08481626       1.68562404       3.03280103       0.00000000
Si      -3.35194443       1.27562103      -1.24215493       0.00000000
Si       2.83964022      -2.31272388      -1.12925056       0.00000000
