10
Lattice="16.28999089631971 0.0 0.0 0.0 16.28999089631971 0.0 0.0 0.0 34.474598006748145" Properties=species:S:1:pos:R:3:initial_magmoms:R:1 pbc="T T T"
Si      -0.22146255       2.24005419       0.68976814       0.00000000
Si       2.16101511      -0.08172693      -0.93708905       0.00000000
Si      -0.86402160      -0.59909733      -2.12329168       0.00000000
Si      -0.22393863      -1.34765541       1.98201470       0.00000000
Si      -2.56161879       1.98177624       0.35777758       0.00000000
Si       1.97442945      -1.86645933       2.52623100       0.00000000
Si      -1.39463577      -3.23042103       1.18768504       0.00000000
Si      -0.18881739      -2.86360281      -2.38205816       0.00000000
Si      -0.35474733       2.19809115       3.01483976       0.00000000
Si       3.18329406       2.00316501      -0.35501961       0.00000000
