10
Lattice="16.28999089631971 0.0 0.0 0.0 16.28999089631971 0.0 0.0 0.0 34.474598006748145" Properties=species:S:1:pos:R:3:initial_magmoms:R:1 pbc="T T T"
Si       1.36528119       1.34715042       1.38359739       0.00000000
Si      -1.35107631      -1.36181142       1.38342502       0.00000000
Si       1.44384786      -1.22362335      -1.45313615       0.00000000
Si      -1.31266449       1.49758857      -1.49300949       0.00000000
Si       2.28182175       0.74789019      -2.75537141       0.00000000
Si      -0.00780291      -2.55376701      -2.77912443       0.00000000
Si      -2.70027927      -2.72673423       0.00616406       0.00000000
Si       0.42477804       2.49124599      -2.88992585       0.00000000
Si      -2.71231758       2.72924617       0.00041714       0.00000000
Si       2.72152143      -2.72332962      -0.00409558       0.00000000
