10
Lattice="16.28999089631971 0.0 0.0 0.0 16.28999089631971 0.0 0.0 0.0 34.474598006748145" Properties=species:S:1:pos:R:3:initial_magmoms:R:1 pbc="T T T"
Si      -1.35686252      -1.35764118       1.35681751       0.00000000
Si       1.35731538      -1.35742941      -1.35730016       0.00000000
Si      -1.35807286       1.35788553      -1.35774833       0.00000000
Si       1.35931905       1.35795069       1.35705883       0.00000000
Si       2.71109583       0.00047241       2.71466926       0.00000000
Si       2.71402803      -2.71425609       0.00020685       0.00000000
Si       2.71386513       0.00016290      -2.71525533       0.00000000
Si       2.71464705       2.71524978       0.00024132       0.00000000
Si      -2.71559413      -0.00027693      -2.71446241       0.00000000
Si      -2.71507256      -2.71521720       0.00031027       0.00000000
