10
Lattice="16.28999089631971 0.0 0.0 0.0 16.28999089631971 0.0 0.0 0.0 34.474598006748145" Properties=species:S:1:pos:R:3:initial_magmoms:R:1 pbc="T T T"
Si       1.31790987      -1.33055484       1.40162072       0.00000000
Si       1.26434835       1.46253575      -1.34480797       0.00000000
Si      -0.99595431      -1.55040468      -1.51897374       0.00000000
Si      -1.41229413       1.37543312       1.37758157       0.00000000
Si       0.86108940      -3.29376048      -1.38441931       0.00000000
Si      -0.38709927       2.14663430      -3.02982384       0.00000000
Si      -2.73339684      -2.54406210      -0.12205738       0.00000000
Si       2.61162909       2.75547305       0.05600402       0.00000000
Si       2.75260275      -2.63722461       0.09485691       0.00000000
Si       2.65984749       0.02212508       2.75820381       0.00000000
