10
Lattice="16.28999089631971 0.0 0.0 0.0 16.28999089631971 0.0 0.0 0.0 34.474598006748145" Properties=species:S:1:pos:R:3:initial_magmoms:R:1 pbc="T T T"
Si      -1.34433225      -1.35273789      -1.40180689       0.00000000
Si       1.36767582       1.36037790      -1.40287560       0.00000000
Si      -1.51829316       1.40467041       1.41800996       0.00000000
Si       1.33081155      -1.50550551       1.52453653       0.00000000
Si       2.71588739      -2.70724813      -0.03999056       0.00000000
Si      -2.72500749      -2.69949735      -0.01313483       0.00000000
Si       2.71867950       2.71738377      -0.02589044       0.00000000
Si      -2.71834488       2.73500955      -0.05705549       0.00000000
Si      -2.70692559       0.00340461      -2.76703621       0.00000000
Si       0.00954594      -2.71224753      -2.76762227       0.00000000
