10
Lattice="16.28999089631971 0.0 0.0 0.0 16.28999089631971 0.0 0.0 0.0 34.474598006748145" Properties=species:S:1:pos:R:3:initial_magmoms:R:1 pbc="T T T"
Si       0.74541411      -2.10898959      -0.66029234       0.00000000
Si      -1.66430043       0.27100777       1.65822909       0.00000000
Si       1.41276654       1.69287553       0.86293414       0.00000000
Si       0.32940009      -0.24290493      -2.55929216       0.00000000
Si      -2.21705271      -0.29793255      -2.06475378       0.00000000
Si      -3.63589542       0.70128369       0.37749706       0.00000000
Si       2.43203184      -2.68925568       1.05585410       0.00000000
Si      -1.18206756       2.21835835       2.87645864       0.00000000
Si       0.03971502       3.58528483       1.32792778       0.00000000
Si       2.59048467       0.70918271      -2.86104849       0.00000000
