10
Lattice="16.28999089631971 0.0 0.0 0.0 16.28999089631971 0.0 0.0 0.0 34.474598006748145" Properties=species:S:1:pos:R:3:initial_magmoms:R:1 pbc="T T T"
Si       1.12008967      -1.88594217      -0.86520947       0.00000000
Si       0.97438050       2.14654959      -0.27662433       0.00000000
Si       0.21294288      -0.23529276       2.35916701       0.00000000
Si      -1.90099413       0.21699909      -1.44083215       0.00000000
Si      -0.12774618       0.78765408      -3.11395428       0.00000000
Si      -0.24513192       3.09591450       1.52836321       0.00000000
Si       1.02575916      -1.27506717      -3.16301166       0.00000000
Si       2.42884619      -1.13992533       2.35778802       0.00000000
Si      -3.69743904      -0.43743537       0.25914570       0.00000000
Si       3.18287771      -2.07146898       0.33950603       0.00000000
