10
Lattice="16.28999089631971 0.0 0.0 0.0 16.28999089631971 0.0 0.0 0.0 34.474598006748145" Properties=species:S:1:pos:R:3:initial_magmoms:R:1 pbc="T T T"
Si       1.35774285      -1.35630540      -1.36505695       0.00000000
Si       1.35100368       1.35700587       1.37698516       0.00000000
Si      -1.35892809       1.36088289      -1.36547064       0.00000000
Si      -1.36767582      -1.36037790       1.40287560       0.00000000
Si      -2.71200807      -2.71311579       0.00106871       0.00000000
Si       2.71339991      -2.71296918      -0.00527462       0.00000000
Si       2.71440989       2.71702539      -0.00175821       0.00000000
Si      -2.71645524       2.71650411      -0.00848076       0.00000000
Si      -0.00046719      -2.71388142      -2.72156419       0.00000000
Si       2.71460537       0.00133578      -2.72187446       0.00000000
