10
Lattice="16.28999089631971 0.0 0.0 0.0 16.28999089631971 0.0 0.0 0.0 34.474598006748145" Properties=species:S:1:pos:R:3:initial_magmoms:R:1 pbc="T T T"
Si       1.04920632      -2.01246660      -0.70572989       0.00000000
Si      -1.78898409      -0.02314809      -1.61024042       0.00000000
Si       1.66071663       1.74237840      -0.29830886       0.00000000
Si      -0.12668733      -0.28255005       2.41163738       0.00000000
Si       0.20574270       3.30356313       1.00631408       0.00000000
Si      -1.09527444       1.96014312      -2.86894317       0.00000000
Si       1.18765503       2.47581936      -2.50630468       0.00000000
Si      -2.78518275       2.45109114       0.36608596       0.00000000
Si       1.77515388      -1.92526623       2.70361708       0.00000000
Si      -0.23703579      -3.95241012      -0.41669470       0.00000000
