10
Lattice="16.28999089631971 0.0 0.0 0.0 16.28999089631971 0.0 0.0 0.0 34.474598006748145" Properties=species:S:1:pos:R:3:initial_magmoms:R:1 pbc="T T T"
Si       1.35407367      -1.35700587       1.35523168       0.00000000
Si       1.35609363       1.35791811      -1.35885151       0.00000000
Si      -1.36024758      -1.35742941      -1.35805860       0.00000000
Si      -1.36480878       1.35742941       1.36254030       0.00000000
Si      -0.01549179      -2.69887833       2.70953254       0.00000000
Si       2.70760977       0.01003464       2.71204919       0.00000000
Si       2.71160082      -2.71262709      -0.00175821       0.00000000
Si       2.71171485       2.71586880      -0.00248217       0.00000000
Si       2.71264338       0.00058644      -2.71535875       0.00000000
Si      -0.00247608      -2.71490769      -2.71580692       0.00000000
