10
Lattice="16.28999089631971 0.0 0.0 0.0 16.28999089631971 0.0 0.0 0.0 34.474598006748145" Properties=species:S:1:pos:R:3:initial_magmoms:R:1 pbc="T T T"
Si       1.10925126       1.58649939      -1.25018752       0.00000000
Si      -1.71727551      -1.13821488      -1.27066544       0.00000000
Si       0.40350330       1.14647391       2.09364351       0.00000000
Si       1.53608184      -1.93029984       0.10580260       0.00000000
Si      -0.59031702      -0.65767617       3.18824708       0.00000000
Si       0.85157604      -2.39107878       2.33393159       0.00000000
Si       2.29205187       0.10603161      -2.66426737       0.00000000
Si      -0.43104969      -2.60288136      -2.66678402       0.00000000
Si       3.00408777       2.38738095       0.05491807       0.00000000
Si      -0.40387797       2.82510954      -2.64054884       0.00000000
