10
Lattice="16.28999089631971 0.0 0.0 0.0 16.28999089631971 0.0 0.0 0.0 34.474598006748145" Properties=species:S:1:pos:R:3:initial_magmoms:R:1 pbc="T T T"
Si      -1.61834634       1.45122723       0.92167889       0.00000000
Si       2.28292947       0.51567624       0.36263850       0.00000000
Si      -0.10160073      -0.56146743      -2.31152309       0.00000000
Si      -0.69370965      -1.98329121       1.25870275       0.00000000
Si      -3.02532993       1.30365612      -1.01679436       0.00000000
Si       0.29734137      -2.83696866      -2.10543383       0.00000000
Si       1.09527444      -1.96014312       2.86894317       0.00000000
Si      -2.29996881      -0.04266351      -2.85573940       0.00000000
Si      -1.68990831       0.49094802       3.23502914       0.00000000
Si       3.41180596      -0.44484732      -1.45931055       0.00000000
