10
Lattice="16.28999089631971 0.0 0.0 0.0 16.28999089631971 0.0 0.0 0.0 34.474598006748145" Properties=species:S:1:pos:R:3:initial_magmoms:R:1 pbc="T T T"
Si      -0.47306160       0.73344096      -2.20799581       0.00000000
Si      -1.66071663      -1.74237840       0.29830886       0.00000000
Si      -1.45497393       1.56118473       1.30462294       0.00000000
Si       2.56757183      -0.31374540       0.41435043       0.00000000
Si       0.24420339       1.29098250       2.83267588       0.00000000
Si      -0.02106297       3.03722163      -1.91403075       0.00000000
Si      -2.75599107       0.21776472      -2.57063431       0.00000000
Si      -1.37101527       3.55312593      -0.00365431       0.00000000
Si      -0.61151031      -3.75484500      -0.40742103       0.00000000
Si      -1.78740396      -2.02492845       2.70994624       0.00000000
