10
Lattice="16.28999089631971 0.0 0.0 0.0 16.28999089631971 0.0 0.0 0.0 34.474598006748145" Properties=species:S:1:pos:R:3:initial_magmoms:R:1 pbc="T T T"
Si      -0.47882826      -0.26845920      -2.34651482       0.00000000
Si       2.26108458       0.95208764      -0.30175632       0.00000000
Si      -0.32940009       0.24290493       2.55929216       0.00000000
Si      -2.54645280      -0.05502762       0.49453838       0.00000000
Si       0.41601402      -1.86608466       1.89899982       0.00000000
Si      -2.78725158      -2.36134953      -0.09808029       0.00000000
Si      -2.25611613      -2.12110461      -2.38740172       0.00000000
Si      -1.33898913      -3.44386890       1.55780453       0.00000000
Si       3.85014217      -0.87770520      -0.86396838       0.00000000
Si       1.08336645       1.93578047       3.42222631       0.00000000
