10
Lattice="16.28999089631971 0.0 0.0 0.0 16.28999089631971 0.0 0.0 0.0 34.474598006748145" Properties=species:S:1:pos:R:3:initial_magmoms:R:1 pbc="T T T"
Si      -0.14193477       2.30739511       0.12462574       0.00000000
Si      -1.79225838      -0.87065163      -1.23805246       0.00000000
Si       2.26421226      -0.46234278      -0.53404630       0.00000000
Si      -0.19140750      -0.81741591       2.23247279       0.00000000
Si      -0.97982721      -2.92250745       1.50654077       0.00000000
Si       1.94856093       2.80264141       1.10249826       0.00000000
Si      -3.36261438       0.90086958      -1.30638115       0.00000000
Si      -2.05475544       2.75704733       1.50030087       0.00000000
Si       3.33853776       1.67656680      -0.51980828       0.00000000
Si       2.02349493      -1.03837347       3.15184188       0.00000000
