10
Lattice="16.28999089631971 0.0 0.0 0.0 16.28999089631971 0.0 0.0 0.0 34.474598006748145" Properties=species:S:1:pos:R:3:initial_magmoms:R:1 pbc="T T T"
Si      -2.29340068       0.16229727      -0.39745786       0.00000000
Si       0.56345481      -1.22054454       1.99914858       0.00000000
Si       0.75640986      -0.80014851      -2.16590230       0.00000000
Si       0.81713898       2.30972652       0.32595751       0.00000000
Si       2.89245240      -1.38727269      -1.45844868       0.00000000
Si      -2.12149720       0.80757675      -2.72535639       0.00000000
Si       0.23552082       1.08888876      -3.44442796       0.00000000
Si      -0.31620519       0.19267812       3.64134697       0.00000000
Si       3.70011060      -0.28255005       0.48933272       0.00000000
Si       3.17483955       1.99679562       0.47664606       0.00000000
