10
Lattice="16.28999089631971 0.0 0.0 0.0 16.28999089631971 0.0 0.0 0.0 34.474598006748145" Properties=species:S:1:pos:R:3:initial_magmoms:R:1 pbc="T T T"
Si      -1.35771449      -1.34728074       1.39180925       0.00000000
Si       1.36089918       1.36858806       1.38991314       0.00000000
Si      -1.47545535       1.31183370      -1.48044694       0.00000000
Si       1.39712814      -1.40678811      -1.47835778       0.00000000
Si      -2.69849456      -2.70585045       0.01470342       0.00000000
Si       2.51972091       0.19842849      -2.86878601       0.00000000
Si      -2.71071206       2.69635338       0.03364033       0.00000000
Si       2.71635750      -2.70576900       0.02539056       0.00000000
Si       2.71024875       2.71598283       0.02878631       0.00000000
Si       0.00301365      -2.70627399       2.75100551       0.00000000
