10
Lattice="16.28999089631971 0.0 0.0 0.0 16.28999089631971 0.0 0.0 0.0 34.474598006748145" Properties=species:S:1:pos:R:3:initial_magmoms:R:1 pbc="T T T"
Si       1.35703845       1.35705474       1.35733463       0.00000000
Si       1.35472527      -1.35839052      -1.35954101       0.00000000
Si      -1.35800770      -1.35809730       1.35702436       0.00000000
Si      -1.36072813       1.35899325      -1.35919626       0.00000000
Si       2.71467963       2.71432125       0.00034475       0.00000000
Si       0.00021177       2.71423980       2.71480716       0.00000000
Si      -2.71487271       2.71461447       0.00075844       0.00000000
Si       2.71471221      -0.00073305       2.71501401       0.00000000
Si       2.71393029      -2.71581993      -0.00048264       0.00000000
Si      -0.00811242      -2.69364924      -2.73601595       0.00000000
