10
Lattice="16.28999089631971 0.0 0.0 0.0 16.28999089631971 0.0 0.0 0.0 34.474598006748145" Properties=species:S:1:pos:R:3:initial_magmoms:R:1 pbc="T T T"
Si       1.35414458      -1.35562122      -1.35995470       0.00000000
Si      -1.35520726       1.35518139      -1.35957548       0.00000000
Si       1.35716149       1.35703845       1.35681751       0.00000000
Si      -1.35755302      -1.35783666       1.35681751       0.00000000
Si       0.00114701       2.68801290      -2.71812362       0.00000000
Si      -2.71410277      -0.00050499       2.71332475       0.00000000
Si      -0.00047185       2.71396287       2.71363502       0.00000000
Si      -2.71424938      -2.71393029      -0.00113766       0.00000000
Si       2.71508448      -0.00037467       2.71404872       0.00000000
Si      -0.00036635      -2.71533123       2.71415214       0.00000000
