10
Lattice="16.28999089631971 0.0 0.0 0.0 16.28999089631971 0.0 0.0 0.0 34.474598006748145" Properties=species:S:1:pos:R:3:initial_magmoms:R:1 pbc="T T T"
Si      -1.35640151       1.35993807      -1.36240240       0.00000000
Si       1.35951453      -1.35773892      -1.36305742       0.00000000
Si       1.36772469       1.35278676       1.37767466       0.00000000
Si      -1.36340621      -1.36001952       1.37874337       0.00000000
Si       2.71129131      -2.71521720      -0.00544699       0.00000000
Si       2.71681362       2.71259451      -0.00365431       0.00000000
Si      -2.71440989      -2.71702539       0.00175821       0.00000000
Si      -2.71710552       2.71494027      -0.00503329       0.00000000
Si       0.00034209       2.71453302      -2.72008178       0.00000000
Si       2.71484253      -0.00043983      -2.71987493       0.00000000
