10
Lattice="16.28999089631971 0.0 0.0 0.0 16.28999089631971 0.0 0.0 0.0 34.474598006748145" Properties=species:S:1:pos:R:3:initial_magmoms:R:1 pbc="T T T"
Si       0.99464622       1.70267967       1.20192306       0.00000000
Si       1.78340476      -0.52955532      -1.41304561       0.00000000
Si      -0.84127980      -1.87457175       1.13666261       0.00000000
Si      -1.54362315       1.21137327      -1.30027914       0.00000000
Si       1.00974217       0.59831541      -3.26054035       0.00000000
Si      -1.97307642      -2.77350282      -0.71121135       0.00000000
Si       1.33643975       0.62605728       3.22782394       0.00000000
Si      -1.33128300       0.11785815      -3.45035760       0.00000000
Si       3.70298579       0.25985808      -0.37122268       0.00000000
Si      -3.66337569       0.71420247      -0.40469753       0.00000000
