10
Lattice="16.28999089631971 0.0 0.0 0.0 16.28999089631971 0.0 0.0 0.0 34.474598006748145" Properties=species:S:1:pos:R:3:initial_magmoms:R:1 pbc="T T T"
Si       0.73477674      -0.91210968      -2.02741777       0.00000000
Si       0.04357575      -1.72934640       1.58738375       0.00000000
Si      -2.15800146       0.96111000      -0.16403023       0.00000000
Si       1.44718731       1.81045431       0.61433768       0.00000000
Si      -1.20964653      -0.42757992       3.19721048       0.00000000
Si       2.40127632      -2.04227730       1.73807230       0.00000000
Si      -0.53804241      -2.95018416      -2.18300171       0.00000000
Si       0.89928945       3.45385467      -1.11049637       0.00000000
Si       0.20854458       0.59491080      -3.76307685       0.00000000
Si      -2.49979498       2.03773239      -2.18993111       0.00000000
