10
Lattice="16.28999089631971 0.0 0.0 0.0 16.28999089631971 0.0 0.0 0.0 34.474598006748145" Properties=species:S:1:pos:R:3:initial_magmoms:R:1 pbc="T T T"
Si       1.35731049      -1.35909099       1.36219555       0.00000000
Si      -1.36050849       1.35666840       1.36212660       0.00000000
Si      -1.35744148      -1.38518757      -1.35520410       0.00000000
Si       1.37729832       1.35945252      -1.37520972       0.00000000
Si      -2.62429849       0.05331717      -2.65696910       0.00000000
Si       2.71416975      -2.71295289       0.00106871       0.00000000
Si       2.71514715       2.71227590       0.00796364       0.00000000
Si      -2.71705375       2.71266686       0.00637780       0.00000000
Si      -2.71379575      -2.71801908       0.00334404       0.00000000
Si       2.71376250      -0.00130320       2.71959913       0.00000000
