10
Lattice="16.28999089631971 0.0 0.0 0.0 16.28999089631971 0.0 0.0 0.0 34.474598006748145" Properties=species:S:1:pos:R:3:initial_magmoms:R:1 pbc="T T T"
Si       1.55548975       1.12654344      -1.36919390       0.00000000
Si      -1.03105779      -1.61352450      -1.42869709       0.00000000
Si       1.52072689      -1.30585527       1.31427583       0.00000000
Si      -1.58905759       1.82979284       0.56221206       0.00000000
Si       0.16790266       2.36233737      -2.81736915       0.00000000
Si      -2.54495479      -0.36391860      -2.80840575       0.00000000
Si       3.50352940       0.26596683       1.62037596       0.00000000
Si       2.41649770       3.09523751      -0.14175963       0.00000000
Si      -1.83119215      -3.49513353      -0.11273200       0.00000000
Si      -1.21717318       3.56408000      -1.25284207       0.00000000
