10
Lattice="16.28999089631971 0.0 0.0 0.0 16.28999089631971 0.0 0.0 0.0 34.474598006748145" Properties=species:S:1:pos:R:3:initial_magmoms:R:1 pbc="T T T"
Si      -0.11722954      -1.58777001       1.72190371       0.00000000
Si      -0.92262343       2.16562585       0.35370957       0.00000000
Si      -0.65043382      -1.68055785      -1.67284633       0.00000000
Si       2.24863951       0.80330877      -0.59099836       0.00000000
Si       3.05431033      -1.29663513      -1.30389897       0.00000000
Si      -1.66969912       2.70157337      -1.86576629       0.00000000
Si       1.09386910      -0.67935816       3.49869101       0.00000000
Si       1.42547974      -2.18268081      -2.77527564       0.00000000
Si       0.70141857       3.50206397       1.47189378       0.00000000
Si       1.21720884      -3.45180213       1.30438162       0.00000000
