10
Lattice="16.28999089631971 0.0 0.0 0.0 16.28999089631971 0.0 0.0 0.0 34.474598006748145" Properties=species:S:1:pos:R:3:initial_magmoms:R:1 pbc="T T T"
Si       1.91726784       0.33935328      -1.25966804       0.00000000
Si      -0.80567082       2.09994390       0.71290061       0.00000000
Si      -1.62883058      -0.88604568      -1.47137667       0.00000000
Si       0.27386748      -1.49345091       1.84628813       0.00000000
Si      -0.43650684      -0.12113244      -3.53378617       0.00000000
Si      -3.05431033       1.29663513       1.30389897       0.00000000
Si       3.33703908       1.34113941       0.28920756       0.00000000
Si      -3.70474415      -0.38392272      -0.36894735       0.00000000
Si       2.71557558      -1.76712291      -1.94036936       0.00000000
Si      -1.04958099       3.38330498      -1.32058469       0.00000000
