10
Lattice="10.86 0.0 0.0 0.0 10.86 0.0 0.0 0.0 10.86" Properties=species:S:1:pos:R:3:initial_magmoms:R:1 pbc="T T T"
Si       1.23823548      -1.46013786      -1.09568712       0.00000000
Si      -1.47676452       1.25486214      -1.09568712       0.00000000
Si       1.20864198       1.16614680       1.70386884       0.00000000
Si      -1.47676452      -1.46013786       1.61931288       0.00000000
Si       2.59573548      -0.10263786      -2.45318712       0.00000000
Si      -0.11926452       2.61236214      -2.45318712       0.00000000
Si       2.50055844       2.64186876       0.45317694       0.00000000
Si       2.58232338      -2.65684470       0.49003578       0.00000000
Si      -0.11926452      -2.81763786      -2.45318712       0.00000000
Si      -2.83426452      -0.10263786      -2.45318712       0.00000000
