10
Lattice="10.86 0.0 0.0 0.0 10.86 0.0 0.0 0.0 10.86" Properties=species:S:1:pos:R:3:initial_magmoms:R:1 pbc="T T T"
Si      -1.54443318      -1.11178164       1.14516528       0.00000000
Si       1.17056682      -1.11178164      -1.56983472       0.00000000
Si       1.17056682       1.60321836       1.14516528       0.00000000
Si      -0.18693318      -2.46928164       2.50266528       0.00000000
Si       2.52806682      -2.46928164      -0.21233472       0.00000000
Si       2.52806682       0.24571836       2.50266528       0.00000000
Si      -0.27539874      -2.34915918      -2.98130892       0.00000000
Si      -2.90193318       0.24571836       2.50266528       0.00000000
Si      -2.96419356      -2.40935616      -0.41778420       0.00000000
Si       2.52806682       0.24571836      -2.92733472       0.00000000
