10
Lattice="16.28999089631971 0.0 0.0 0.0 16.28999089631971 0.0 0.0 0.0 34.281931910070035" Properties=species:S:1:pos:R:3:initial_magmoms:R:1 pbc="T T T"
Si       0.67862511      -1.60867008      -1.52232432       0.00000000
Si      -0.17344615       2.07835965      -1.15039943       0.00000000
Si      -1.92326975      -0.64905876       1.27652273       0.00000000
Si       1.80387315       0.03446964       1.59644190       0.00000000
Si       0.30315690      -3.64231368      -0.30356668       0.00000000
Si      -1.59446031       3.34079460       0.27271292       0.00000000
Si      -0.82893457      -1.49146353      -3.33799929       0.00000000
Si       2.03304087       2.54990628      -1.94628921       0.00000000
Si       2.54275497       2.24782452       1.88955258       0.00000000
Si      -2.40716420       0.92939337       3.02167973       0.00000000
