10
Lattice="16.28999089631971 0.0 0.0 0.0 16.28999089631971 0.0 0.0 0.0 34.281931910070035" Properties=species:S:1:pos:R:3:initial_magmoms:R:1 pbc="T T T"
Si       1.35024552       1.34980569       1.38813448       0.00000000
Si      -1.36334268      -1.36108000       1.38799735       0.00000000
Si      -1.21849200       1.54590471      -1.42011268       0.00000000
Si       1.43971020      -1.34264298      -1.48678422       0.00000000
Si      -2.70164763       0.21470220      -2.64197695       0.00000000
Si       2.71280628      -2.70808937       0.02442246       0.00000000
Si      -2.71409319       2.71632492       0.02186503       0.00000000
Si       2.71953405       2.71710684       0.00083305       0.00000000
Si      -2.72660391      -2.71468740      -0.00139185       0.00000000
Si      -0.00684180       2.71005327       2.74854514       0.00000000
