10
Lattice="16.28999089631971 0.0 0.0 0.0 16.28999089631971 0.0 0.0 0.0 34.281931910070035" Properties=species:S:1:pos:R:3:initial_magmoms:R:1 pbc="T T T"
Si       1.35474156      -1.35663749       1.35739385       0.00000000
Si       1.35658233       1.35732190      -1.35783952       0.00000000
Si      -1.35812988      -1.35812445      -1.35753098       0.00000000
Si      -1.36091547       1.35759883       1.36243330       0.00000000
Si       0.00562005      -2.71217164       2.70261761       0.00000000
Si       2.71342530      -2.71331194      -0.00027426       0.00000000
Si       2.71355562       0.00039422      -2.71495911       0.00000000
Si      -2.71463891      -2.71521787       0.00030854       0.00000000
Si      -0.00076563       2.71481647      -2.71540478       0.00000000
Si      -2.71430170       2.71598935      -0.00126843       0.00000000
