10
Lattice="16.28999089631971 0.0 0.0 0.0 16.28999089631971 0.0 0.0 0.0 34.281931910070035" Properties=species:S:1:pos:R:3:initial_magmoms:R:1 pbc="T T T"
Si       1.35697329      -1.35692768      -1.35711960       0.00000000
Si      -1.35658233      -1.35732190       1.35783952       0.00000000
Si      -1.35734796       1.35749457      -1.35756526       0.00000000
Si       1.35870003       1.35852084       1.35701675       0.00000000
Si       2.70902700       0.00327429       2.71698175       0.00000000
Si      -0.00184077      -2.71395938       2.71523337       0.00000000
Si       0.00159642      -2.71482976      -2.71468486       0.00000000
Si       2.71466334      -2.71499362      -0.00030854       0.00000000
Si       2.71427238       2.71559187       0.00020569       0.00000000
Si       2.71674846      -0.00034209      -2.71324502       0.00000000
