10
Lattice="16.28999089631971 0.0 0.0 0.0 16.28999089631971 0.0 0.0 0.0 34.281931910070035" Properties=species:S:1:pos:R:3:initial_magmoms:R:1 pbc="T T T"
Si       0.55421838       0.30454155       2.30669536       0.00000000
Si      -2.34002592       0.50249763       0.32019342       0.00000000
Si      -0.05035239      -2.25079419      -0.99763906       0.00000000
Si       1.58601069       1.92130776      -0.35701224       0.00000000
Si      -1.26640089      -0.74326383      -2.58681318       0.00000000
Si       3.35551194      -1.25931637       0.22831779       0.00000000
Si       2.90831886       0.14661000       2.18002355       0.00000000
Si       2.42439183       1.18511379      -2.46154693       0.00000000
Si      -3.06664137      -1.83486325       1.06918549       0.00000000
Si      -2.30707125      -2.99749751      -0.83469694       0.00000000
