10
Lattice="16.28999089631971 0.0 0.0 0.0 16.28999089631971 0.0 0.0 0.0 34.281931910070035" Properties=species:S:1:pos:R:3:initial_magmoms:R:1 pbc="T T T"
Si      -1.46993304       1.25600298      -1.27830539       0.00000000
Si       1.26755748      -1.47311026      -1.30943340       0.00000000
Si       1.00325223       1.58197240       1.45482316       0.00000000
Si      -1.77880284      -0.87948637       1.45873130       0.00000000
Si      -0.03741813      -0.67226128       3.20693939       0.00000000
Si       2.71601541      -2.51799973       0.16815297       0.00000000
Si      -0.09897804       2.59666021      -2.64961772       0.00000000
Si       2.61667899      -0.11757610      -2.65465716       0.00000000
Si       2.21930073       0.07444204       3.04399728       0.00000000
Si       2.72026710       2.66315599       0.20761150       0.00000000
