10
Lattice="16.28999089631971 0.0 0.0 0.0 16.28999089631971 0.0 0.0 0.0 34.281931910070035" Properties=species:S:1:pos:R:3:initial_magmoms:R:1 pbc="T T T"
Si      -1.00325223      -1.58197240      -1.45482316       0.00000000
Si       1.71701487       1.08118359      -1.24721166       0.00000000
Si       1.21604850      -1.50753036       1.58917412       0.00000000
Si       1.26640089       0.74326383       2.58681318       0.00000000
Si      -1.04067036      -2.25423368       1.75211624       0.00000000
Si      -1.07362503       1.24576146       2.90700660       0.00000000
Si       0.26743293       2.37583134      -2.72106130       0.00000000
Si      -2.47318527      -0.32596942      -2.73312855       0.00000000
Si      -2.78205507      -2.46145877       0.00390814       0.00000000
Si       2.88192906      -2.44075418      -0.06469004       0.00000000
