10
Lattice="16.28999089631971 0.0 0.0 0.0 16.28999089631971 0.0 0.0 0.0 34.281931910070035" Properties=species:S:1:pos:R:3:initial_magmoms:R:1 pbc="T T T"
Si       0.63689013      -1.07044848      -2.00192881       0.00000000
Si       0.08464284       2.26185021      -0.69376384       0.00000000
Si      -2.31065505      -0.54670869       0.24103640       0.00000000
Si       1.86890283       0.72422082       1.77271969       0.00000000
Si      -1.03791735      -0.01394424      -3.23155384       0.00000000
Si      -3.00917025       0.21431124      -1.91810944       0.00000000
Si      -0.33117570       3.36417822       1.39654384       0.00000000
Si      -2.48819976      -2.83300204       0.72334917       0.00000000
Si      -3.21136173       0.72689238       2.00518560       0.00000000
Si       0.54820737       2.06998659       3.31036804       0.00000000
