10
Lattice="16.28999089631971 0.0 0.0 0.0 16.28999089631971 0.0 0.0 0.0 34.281931910070035" Properties=species:S:1:pos:R:3:initial_magmoms:R:1 pbc="T T T"
Si      -1.35571896      -1.35586557       1.35581688       0.00000000
Si       1.35755973      -1.35773892      -1.35777095       0.00000000
Si      -1.35793440       1.35751086      -1.35780524       0.00000000
Si       1.35887922       1.35809730       1.35828518       0.00000000
Si       2.71459818      -2.71445157       0.00006856       0.00000000
Si      -2.71492398      -2.71451673      -0.00017141       0.00000000
Si      -2.71482624       2.71477737      -0.00010285       0.00000000
Si       2.71573848       0.00065160      -2.71399922       0.00000000
Si      -2.71472850       0.00161271      -2.71513052       0.00000000
Si       2.71518462       2.71474479       0.00061708       0.00000000
