10
Lattice="16.28999089631971 0.0 0.0 0.0 16.28999089631971 0.0 0.0 0.0 34.281931910070035" Properties=species:S:1:pos:R:3:initial_magmoms:R:1 pbc="T T T"
Si       1.29411018       1.26985437       1.53278172       0.00000000
Si       1.32069546      -1.34576577      -1.53764835       0.00000000
Si      -0.87938307       1.29419163      -1.91382420       0.00000000
Si      -1.43909118      -1.36445040       1.64015965       0.00000000
Si      -3.21286041       1.11418713      -1.46644474       0.00000000
Si       2.52625320      -2.79704187       0.10113176       0.00000000
Si      -0.54820737      -2.06998659      -3.31036804       0.00000000
Si       2.49893487      -0.19324827       3.06110539       0.00000000
Si       2.57227245       3.01159746       0.08210527       0.00000000
Si      -0.22592601       2.50944192       3.05773890       0.00000000
