10
Lattice="16.28999089631971 0.0 0.0 0.0 16.28999089631971 0.0 0.0 0.0 34.281931910070035" Properties=species:S:1:pos:R:3:initial_magmoms:R:1 pbc="T T T"
Si      -1.32069546       1.34576577       1.53764835       0.00000000
Si       1.20555774      -1.45127610       1.63878011       0.00000000
Si       1.67329251       1.55631402      -1.14042338       0.00000000
Si      -1.86890283      -0.72422082      -1.77271969       0.00000000
Si      -1.78425999       1.53762939      -2.46648353       0.00000000
Si      -2.20007853       2.63995740      -0.37617585       0.00000000
Si       0.34360497       2.33637696      -2.90995485       0.00000000
Si      -0.02658528       2.61562014       3.07043008       0.00000000
Si       2.83068072      -2.82510465       0.55776734       0.00000000
Si       2.59454088      -0.20038329       3.17303938       0.00000000
