10
Lattice="16.28999089631971 0.0 0.0 0.0 16.28999089631971 0.0 0.0 0.0 34.281931910070035" Properties=species:S:1:pos:R:3:initial_magmoms:R:1 pbc="T T T"
Si       0.94882734       2.04996618       0.54971109       0.00000000
Si       0.80484003      -1.97283303       0.99054269       0.00000000
Si       0.06856461      -0.17516637      -2.34714806       0.00000000
Si      -2.28747438       0.34699329       0.52197699       0.00000000
Si      -1.24726014       1.91254374      -2.40038793       0.00000000
Si      -3.08927633       0.75663792      -1.63809447       0.00000000
Si      -2.73748563      -1.57918518       1.75972683       0.00000000
Si      -0.72949878      -2.27522430       2.73861366       0.00000000
Si       0.09394443       3.43298718      -1.19805134       0.00000000
Si       3.18844170       1.77743448      -0.10894804       0.00000000
