10
Lattice="16.28999089631971 0.0 0.0 0.0 16.28999089631971 0.0 0.0 0.0 34.281931910070035" Properties=species:S:1:pos:R:3:initial_magmoms:R:1 pbc="T T T"
Si       2.10595491       0.35616456       1.00206143       0.00000000
Si      -2.02593843       1.12119183       0.51114389       0.00000000
Si       0.68336550       0.66310074      -2.17234439       0.00000000
Si      -0.26107983      -2.33186463       0.54100347       0.00000000
Si      -3.40558740       0.10217088      -1.14817111       0.00000000
Si      -2.44599237       0.35013726       2.70128062       0.00000000
Si       3.53323584      -0.78595992      -0.65673934       0.00000000
Si       0.53463780      -3.36740364      -1.39277283       0.00000000
Si       1.85114673      -1.02736143       3.11897191       0.00000000
Si      -0.64223325      -0.36952236      -3.71983166       0.00000000
