10
Lattice="16.28999089631971 0.0 0.0 0.0 16.28999089631971 0.0 0.0 0.0 34.281931910070035" Properties=species:S:1:pos:R:3:initial_magmoms:R:1 pbc="T T T"
Si       1.35697329       1.35531171      -1.35739385       0.00000000
Si      -1.35987291       1.35278676       1.35749670       0.00000000
Si       1.35254241      -1.35702216       1.36435309       0.00000000
Si      -1.35822762      -1.35980775      -1.35715388       0.00000000
Si      -2.69259691      -0.00690696       2.71705031       0.00000000
Si       0.00596214       2.71586880       2.70326897       0.00000000
Si      -2.71429681       2.71282257       0.00095989       0.00000000
Si      -0.00045612       2.71290402      -2.71482199       0.00000000
Si       2.71376739       2.71472850       0.00037710       0.00000000
Si       2.71399545      -0.00153126      -2.71465058       0.00000000
