10
Lattice="16.28999089631971 0.0 0.0 0.0 16.28999089631971 0.0 0.0 0.0 34.281931910070035" Properties=species:S:1:pos:R:3:initial_magmoms:R:1 pbc="T T T"
Si       1.36231641       1.33402068      -1.39123014       0.00000000
Si      -1.35609363      -1.37484342      -1.38924179       0.00000000
Si       1.41190317      -1.32468651       1.51862187       0.00000000
Si      -1.25421597       1.65315807       1.42726047       0.00000000
Si      -2.70267390       2.69804754      -0.05032590       0.00000000
Si       2.70826137      -2.70638802      -0.02787123       0.00000000
Si       2.74336632       2.68346799      -0.00925613       0.00000000
Si      -2.70723510      -2.72578941      -0.01559829       0.00000000
Si       0.00513135       2.69690724      -2.75321777       0.00000000
Si      -2.70863604      -0.01782126      -2.75359487       0.00000000
