10
Lattice="16.28999089631971 0.0 0.0 0.0 16.28999089631971 0.0 0.0 0.0 34.281931910070035" Properties=species:S:1:pos:R:3:initial_magmoms:R:1 pbc="T T T"
Si       0.74248191      -2.07708903       0.93716570       0.00000000
Si      -1.91479176      -0.08309529      -1.47600940       0.00000000
Si       0.08765649       1.99788705       1.44069899       0.00000000
Si       2.10543363       1.38046347      -0.34357371       0.00000000
Si      -0.36310410       1.22670216      -2.75959422       0.00000000
Si      -2.48775993      -0.19932444       2.16216265       0.00000000
Si       0.80606178       2.88592011      -1.53761407       0.00000000
Si      -1.17193518      -2.28703455       2.21540252       0.00000000
Si      -3.35099961       0.76963734       0.21717616       0.00000000
Si      -1.14655536       1.32111900       3.36449924       0.00000000
