10
Lattice="16.28999089631971 0.0 0.0 0.0 16.28999089631971 0.0 0.0 0.0 34.281931910070035" Properties=species:S:1:pos:R:3:initial_magmoms:R:1 pbc="T T T"
Si       1.29937185      -1.50545664       1.19404036       0.00000000
Si       1.64875977       0.95534238      -1.35269723       0.00000000
Si      -1.16916588      -1.65921795      -1.22198015       0.00000000
Si      -1.66588056       0.93322382       1.65386417       0.00000000
Si      -0.71840529      -0.88803306       2.97831306       0.00000000
Si      -0.80606178      -2.88592011       1.53761407       0.00000000
Si       0.08926920       2.10502705      -2.67793461       0.00000000
Si       2.49663798       2.55041846       0.31926781       0.00000000
Si       1.62188127      -0.41979330       3.26782414       0.00000000
Si      -2.88192906       2.44075418       0.06469004       0.00000000
