10
Lattice="16.28999089631971 0.0 0.0 0.0 16.28999089631971 0.0 0.0 0.0 34.281931910070035" Properties=species:S:1:pos:R:3:initial_magmoms:R:1 pbc="T T T"
Si      -1.05096564       2.09396547       0.18457402       0.00000000
Si      -0.88317864      -1.11705417       1.88201055       0.00000000
Si       2.29943124      -0.44302284       0.43016992       0.00000000
Si       0.07525980      -0.45203121      -2.35163900       0.00000000
Si       0.76061268      -0.00410508       3.39185624       0.00000000
Si      -2.81487942       1.74806361      -1.42441507       0.00000000
Si       3.20134338       1.71898596       0.09475531       0.00000000
Si       3.00889332      -2.02147497      -1.18690971       0.00000000
Si       0.23122026       3.72569472      -0.96603110       0.00000000
Si       2.31487416      -0.72456291      -3.01029812       0.00000000
