10
Lattice="16.28999089631971 0.0 0.0 0.0 16.28999089631971 0.0 0.0 0.0 34.281931910070035" Properties=species:S:1:pos:R:3:initial_magmoms:R:1 pbc="T T T"
Si      -1.85360652      -0.81865395       1.28649676       0.00000000
Si       0.89635725       1.88721509       1.23584518       0.00000000
Si       1.65534093      -1.83221775       0.11296250       0.00000000
Si      -0.42046119      -2.03561469      -2.80697187       0.00000000
Si       2.16945333       0.52176870       2.74705186       0.00000000
Si      -0.55863297      -2.18852892       2.76505674       0.00000000
Si      -2.66896989      -2.72795598       0.13340517       0.00000000
Si       3.47626971      -0.87964371       1.35494410       0.00000000
Si       0.81668286      -3.51665262       1.47833513       0.00000000
Si       1.55224152      -3.13760061      -1.85568201       0.00000000
