10
Lattice="16.28999089631971 0.0 0.0 0.0 16.28999089631971 0.0 0.0 0.0 34.281931910070035" Properties=species:S:1:pos:R:3:initial_magmoms:R:1 pbc="T T T"
Si       1.35726651       1.35779756      -1.35818234       0.00000000
Si      -1.35821133      -1.35721234      -1.35811377       0.00000000
Si       1.36083402      -1.35890137       1.35927936       0.00000000
Si      -1.36384767       1.36105556       1.35917651       0.00000000
Si       2.71471221      -2.71384625      -0.00020569       0.00000000
Si      -2.71603170      -2.71285256      -0.00023997       0.00000000
Si      -0.00079821      -2.71444898      -2.71478771       0.00000000
Si       2.71446786       0.00082265      -2.71519909       0.00000000
Si      -0.00086337       2.71499891      -2.71499340       0.00000000
Si       2.71448415       2.71571567      -0.00085705       0.00000000
