10
Lattice="16.28999089631971 0.0 0.0 0.0 16.28999089631971 0.0 0.0 0.0 34.281931910070035" Properties=species:S:1:pos:R:3:initial_magmoms:R:1 pbc="T T T"
Si       0.96018147       0.08842212       2.13103464       0.00000000
Si       1.01700099      -1.90232081      -0.92513273       0.00000000
Si       0.65244708       1.85995962      -1.27751691       0.00000000
Si      -2.37561957       0.07983729       0.09156709       0.00000000
Si      -2.56007124       1.39101939       2.15564908       0.00000000
Si      -0.49708935      -3.62497202      -0.60795612       0.00000000
Si       2.69604387       1.19153205      -2.25870063       0.00000000
Si       0.86293017      -2.14753418       2.90707517       0.00000000
Si       3.10601430       1.01579553       1.86651511       0.00000000
Si      -0.48731535       1.39222485       3.46528818       0.00000000
