10
Lattice="16.28999089631971 0.0 0.0 0.0 16.28999089631971 0.0 0.0 0.0 34.281931910070035" Properties=species:S:1:pos:R:3:initial_magmoms:R:1 pbc="T T T"
Si       0.11054394      -1.58511394       1.64639070       0.00000000
Si       0.42590205       2.06647593       0.98324064       0.00000000
Si      -2.30167926      -0.17285239      -0.52533662       0.00000000
Si       1.61720604      -0.40369798      -1.73377539       0.00000000
Si       0.26696052       3.13606104      -1.17556238       0.00000000
Si      -1.92837762      -1.57973824      -2.39476569       0.00000000
Si       1.71445734       1.83225831      -2.50981592       0.00000000
Si       0.34125921      -2.02872322      -2.90861786       0.00000000
Si      -1.58664600      -1.03685770       3.17694269       0.00000000
Si       2.29526100      -1.68383134       2.45181086       0.00000000
