10
Lattice="16.28999089631971 0.0 0.0 0.0 16.28999089631971 0.0 0.0 0.0 34.281931910070035" Properties=species:S:1:pos:R:3:initial_magmoms:R:1 pbc="T T T"
Si      -1.35821133      -1.35705474       1.35746242       0.00000000
Si       1.35754344       1.35808101       1.35715388       0.00000000
Si       1.36202319      -1.35534429      -1.35955362       0.00000000
Si      -1.36127385       1.35751086      -1.36174766       0.00000000
Si      -2.71347417      -2.71461447       0.00140556       0.00000000
Si       2.71386513      -2.71438641      -0.00006856       0.00000000
Si      -0.00008145      -2.71425609       2.71427348       0.00000000
Si       2.71450044       0.00057015       2.71454773       0.00000000
Si      -0.00092853       2.71544526       2.71499340       0.00000000
Si      -2.71595025       0.00131949       2.71485627       0.00000000
