10
Lattice="16.28999089631971 0.0 0.0 0.0 16.28999089631971 0.0 0.0 0.0 34.281931910070035" Properties=species:S:1:pos:R:3:initial_magmoms:R:1 pbc="T T T"
Si      -1.35734796      -1.33659450       1.37583754       0.00000000
Si      -1.35488817       1.35783666      -1.35869657       0.00000000
Si       1.35938421      -1.35563751      -1.35993072       0.00000000
Si       1.35084825       1.36539522       1.37391775       0.00000000
Si       2.69764029      -0.08987193       2.69253872       0.00000000
Si      -2.71148679       2.71415835       0.00233117       0.00000000
Si      -2.71894761      -2.71029762       0.00010285       0.00000000
Si      -2.71370223       0.00201996      -2.71667321       0.00000000
Si       0.00216657      -2.71355562      -2.71725601       0.00000000
Si       0.00131949       2.71614573      -2.71653608       0.00000000
