10
Lattice="16.28999089631971 0.0 0.0 0.0 16.28999089631971 0.0 0.0 0.0 34.281931910070035" Properties=species:S:1:pos:R:3:initial_magmoms:R:1 pbc="T T T"
Si      -1.14743502      -1.62155547       1.28015662       0.00000000
Si       2.15001936      -0.33296760       0.97240754       0.00000000
Si      -0.46164231      -0.03826521      -2.33936606       0.00000000
Si      -1.01872773       2.07544374       0.59551177       0.00000000
Si      -2.88085392       0.13983336      -2.06757875       0.00000000
Si      -3.13087284       1.79372448      -0.37103356       0.00000000
Si       2.60965800       1.80913482       1.81615492       0.00000000
Si       0.68900184       1.99000269      -3.07563952       0.00000000
Si      -1.64618595       1.79722683       2.82709538       0.00000000
Si      -1.69665237      -0.53211285       3.32418367       0.00000000
