10
Lattice="16.28999089631971 0.0 0.0 0.0 16.28999089631971 0.0 0.0 0.0 34.281931910070035" Properties=species:S:1:pos:R:3:initial_magmoms:R:1 pbc="T T T"
Si       0.82692927       1.83847311       1.23248897       0.00000000
Si       1.46168541      -1.88636571       0.21158790       0.00000000
Si      -1.83635541      -0.84541842       1.32085413       0.00000000
Si       0.65498832      -0.32788512      -2.76223393       0.00000000
Si       0.52662312      -2.47634064      -1.90137985       0.00000000
Si       2.16075447       0.50236731       2.76134058       0.00000000
Si      -0.55467450      -2.23055712       2.76852950       0.00000000
Si       3.34821402      -0.96384672       1.30072720       0.00000000
Si       2.62239678       2.80458414      -0.14641821       0.00000000
Si      -3.22533855      -2.09631123      -0.21340515       0.00000000
