10
Lattice="16.28999089631971 0.0 0.0 0.0 16.28999089631971 0.0 0.0 0.0 34.281931910070035" Properties=species:S:1:pos:R:3:initial_magmoms:R:1 pbc="T T T"
Si       1.35571896      -1.35527913       1.35605686       0.00000000
Si      -1.33442793      -1.36117611      -1.37574498       0.00000000
Si      -1.35741312       1.36055709       1.35705103       0.00000000
Si       1.35540945       1.35374787      -1.37109635       0.00000000
Si      -2.70767493       0.04678488      -2.63619976       0.00000000
Si      -0.00115659      -2.71336014       2.71489055       0.00000000
Si       2.71379997       0.00102627       2.71492483       0.00000000
Si       2.71435383      -2.71539639      -0.00572509       0.00000000
Si       2.71256193       2.71767699      -0.00267399       0.00000000
Si      -2.71813311      -2.71270854      -0.00610219       0.00000000
