10
Lattice="16.28999089631971 0.0 0.0 0.0 16.28999089631971 0.0 0.0 0.0 34.281931910070035" Properties=species:S:1:pos:R:3:initial_magmoms:R:1 pbc="T T T"
Si      -1.44347319       1.79289369       0.51059538       0.00000000
Si       1.00458801       0.38911923       2.16349965       0.00000000
Si       0.96721875      -0.76740561      -2.13624550       0.00000000
Si      -2.18939229      -1.57421673       2.06384202       0.00000000
Si      -1.93347639       2.06461089      -1.90892188       0.00000000
Si       0.22849983       2.58722667       2.31320893       0.00000000
Si      -0.25607880      -1.12958118       3.41828762       0.00000000
Si      -3.11904630       0.63469098       1.76932578       0.00000000
Si       2.49513930      -2.40911181      -1.13085872       0.00000000
Si       3.27543030      -0.04346172       2.20326671       0.00000000
