10
Lattice="16.28999089631971 0.0 0.0 0.0 16.28999089631971 0.0 0.0 0.0 34.281931910070035" Properties=species:S:1:pos:R:3:initial_magmoms:R:1 pbc="T T T"
Si      -0.50661900       1.34508159       1.89963147       0.00000000
Si      -1.71207900      -0.39757374      -1.61680538       0.00000000
Si       1.67557311       1.15820271      -1.25873040       0.00000000
Si       0.92965401      -2.20890771       0.29451624       0.00000000
Si       3.11904630      -0.63469098      -1.76932578       0.00000000
Si      -3.62649609      -0.60751926      -0.33856855       0.00000000
Si       0.18740016       0.04816953       3.72301989       0.00000000
Si       2.86296750      -1.76427216       1.64896185       0.00000000
Si       0.31954464       3.56781951       1.49071636       0.00000000
Si       3.34754613       1.95253569       0.54388315       0.00000000
