10
Lattice="16.28999089631971 0.0 0.0 0.0 16.28999089631971 0.0 0.0 0.0 34.281931910070035" Properties=species:S:1:pos:R:3:initial_magmoms:R:1 pbc="T T T"
Si       2.27589219      -0.26305092      -0.47871316       0.00000000
Si      -1.06492617      -1.78991262      -1.07936723       0.00000000
Si      -0.82432287       2.18341386      -0.29544185       0.00000000
Si      -0.21484881      -0.70848468       2.26987654       0.00000000
Si       3.15437931       0.72633852       1.46877591       0.00000000
Si      -0.62349975      -3.54600720       0.40003609       0.00000000
Si      -3.28640976      -1.10806209      -1.06325471       0.00000000
Si      -0.90839556       2.33100126      -2.63563068       0.00000000
Si       2.00591802      -0.61612038       2.98448381       0.00000000
Si       2.89676925      -2.54060469      -0.60476790       0.00000000
