10
Lattice="16.28999089631971 0.0 0.0 0.0 16.28999089631971 0.0 0.0 0.0 34.281931910070035" Properties=species:S:1:pos:R:3:initial_magmoms:R:1 pbc="T T T"
Si       1.35743565       1.35746964       1.35708532       0.00000000
Si      -1.35716809      -1.35784923       1.35729101       0.00000000
Si      -1.35400783       1.35725462      -1.36202192       0.00000000
Si       1.35769629      -1.35903840      -1.36010213       0.00000000
Si       2.71493184       2.71446248       0.00013713       0.00000000
Si      -2.71490701      -0.00063067       2.71502768       0.00000000
Si      -2.71550974       2.71462538       0.00013713       0.00000000
Si      -0.00006388       2.71504892       2.71513052       0.00000000
Si       0.00032670      -2.71558815       2.71513052       0.00000000
Si       2.71568118      -0.00070693       2.71516481       0.00000000
