10
Lattice="16.28999089631971 0.0 0.0 0.0 16.28999089631971 0.0 0.0 0.0 34.281931910070035" Properties=species:S:1:pos:R:3:initial_magmoms:R:1 pbc="T T T"
Si       1.35400783      -1.35725462       1.36202192       0.00000000
Si      -1.36150191       1.35737077       1.36215904       0.00000000
Si       1.35008262       1.35380326      -1.38588215       0.00000000
Si      -1.36257705      -1.36062464      -1.37054098       0.00000000
Si       2.70991222       2.71491421      -0.00191979       0.00000000
Si       2.71170412      -2.71629301       0.00191979       0.00000000
Si      -2.71334385       2.71641289       0.00267399       0.00000000
Si       2.71144348       0.00021503       2.71910723       0.00000000
Si      -2.71943631      -2.71373548       0.00174838       0.00000000
Si      -0.00273672       2.71493050       2.71914151       0.00000000
