10
Lattice="16.28999089631971 0.0 0.0 0.0 16.28999089631971 0.0 0.0 0.0 34.281931910070035" Properties=species:S:1:pos:R:3:initial_magmoms:R:1 pbc="T T T"
Si      -1.39108455       1.28673081       1.33631045       0.00000000
Si      -1.36831113      -1.33628499      -1.35646824       0.00000000
Si       1.34079732       1.37989332      -1.35550835       0.00000000
Si       1.26912132      -1.31789358       1.57772395       0.00000000
Si       0.35243415       2.35206423       2.57330609       0.00000000
Si       2.13330160       0.54182169       2.79243632       0.00000000
Si      -2.33965125      -0.35549667       2.70498307       0.00000000
Si       2.68483865      -2.67734947       0.01847797       0.00000000
Si      -0.01487277      -2.69462827      -2.71602186       0.00000000
Si       2.70240741       0.02169828      -2.71653608       0.00000000
