10
Lattice="16.28999089631971 0.0 0.0 0.0 16.28999089631971 0.0 0.0 0.0 34.281931910070035" Properties=species:S:1:pos:R:3:initial_magmoms:R:1 pbc="T T T"
Si      -1.28656791      -1.39701983       1.50021246       0.00000000
Si       0.74404575       1.85631213       1.41210785       0.00000000
Si      -1.36487394       1.30184940      -1.66963386       0.00000000
Si       1.35633798      -1.39972397      -1.66593141       0.00000000
Si       2.64179817       2.68659714      -0.13112846       0.00000000
Si      -2.60941365      -2.72348195      -0.09153281       0.00000000
Si      -2.74387131       2.71225389      -0.22958623       0.00000000
Si      -0.96697440       3.64899405       0.99613065       0.00000000
Si       2.85950052      -2.71048253      -0.33164359       0.00000000
Si       3.74864570      -0.80834810       1.04666225       0.00000000
