10
Lattice="16.28999089631971 0.0 0.0 0.0 16.28999089631971 0.0 0.0 0.0 34.281931910070035" Properties=species:S:1:pos:R:3:initial_magmoms:R:1 pbc="T T T"
Si      -0.43937388       2.25016702       0.01271860       0.00000000
Si      -1.68640596      -1.27131462       0.89403900       0.00000000
Si       1.70296542      -0.05107567       1.58276340       0.00000000
Si       0.28473291      -0.30135915      -2.31454593       0.00000000
Si      -0.40327524      -3.30797187       0.50634442       0.00000000
Si      -3.38752179      -0.31711158      -0.56506940       0.00000000
Si      -1.29850848       2.60100475       2.22657844       0.00000000
Si       2.89117268       1.95074053       1.14947382       0.00000000
Si       2.49229574       0.38759449      -2.76943314       0.00000000
Si      -1.70847891       2.77674127      -1.89863730       0.00000000
