10
Lattice="16.28999089631971 0.0 0.0 0.0 16.28999089631971 0.0 0.0 0.0 34.281931910070035" Properties=species:S:1:pos:R:3:initial_magmoms:R:1 pbc="T T T"
Si      -0.24316083       2.29944753      -0.32543856       0.00000000
Si      -2.14583283      -0.92737341       0.26451953       0.00000000
Si       0.85913460      -0.35083773      -2.21385984       0.00000000
Si       1.60915878      -0.57083418       1.72904448       0.00000000
Si       2.02170370       2.72393235      -0.84899252       0.00000000
Si       1.29850848      -2.60100475      -2.22657844       0.00000000
Si       2.83161481       0.88923852      -2.14882697       0.00000000
Si      -3.10601430      -1.01579553      -1.86651511       0.00000000
Si       3.65518997       0.26370252       1.01364873       0.00000000
Si       1.98943810      -2.88143126       1.49184766       0.00000000
