10
Lattice="16.28999089631971 0.0 0.0 0.0 16.28999089631971 0.0 0.0 0.0 34.281931910070035" Properties=species:S:1:pos:R:3:initial_magmoms:R:1 pbc="T T T"
Si       1.53356408       1.13427433       1.37669943       0.00000000
Si      -1.26337095      -1.53965979       1.33890358       0.00000000
Si      -0.83657295       1.42353097      -1.77841049       0.00000000
Si       0.50618310       0.12659122      -3.24845484       0.00000000
Si      -0.51965100      -2.02539501      -2.84451061       0.00000000
Si       0.16568559       2.48953228       2.89683999       0.00000000
Si      -2.54697408      -0.22489562       2.91218116       0.00000000
Si       2.79007694       0.50497860      -2.75205219       0.00000000
Si       2.90423726       2.71231432       0.25326207       0.00000000
Si      -2.44169181      -3.14997516      -0.08858456       0.00000000
