10
Lattice="16.28999089631971 0.0 0.0 0.0 16.28999089631971 0.0 0.0 0.0 34.281931910070035" Properties=species:S:1:pos:R:3:initial_magmoms:R:1 pbc="T T T"
Si      -1.31898501       1.19309915       1.46534772       0.00000000
Si       0.06346584      -2.31359118       0.22444393       0.00000000
Si      -0.05934447       0.66958742      -2.39027476       0.00000000
Si       2.02973400       0.38573417       1.43881349       0.00000000
Si       3.37249005      -0.91120558      -0.03123086       0.00000000
Si      -0.30503025      -2.88064608      -2.00223735       0.00000000
Si      -1.19061981       3.34155467       0.60449364       0.00000000
Si       1.03612545      -1.35008655      -3.17982237       0.00000000
Si       1.26965889       2.65954124      -2.26843670       0.00000000
Si       1.08238905       3.62689031      -0.05310274       0.00000000
