10
Lattice="16.28999089631971 0.0 0.0 0.0 16.28999089631971 0.0 0.0 0.0 34.281931910070035" Properties=species:S:1:pos:R:3:initial_magmoms:R:1 pbc="T T T"
Si      -1.34658027      -1.35746199       1.37455197       0.00000000
Si       1.36588392       1.35619137       1.37547758       0.00000000
Si       1.18745955      -1.46621403      -1.46061338       0.00000000
Si      -1.33382520       1.33610580      -1.52885160       0.00000000
Si      -2.16075447      -0.50236731      -2.76134058       0.00000000
Si       2.18668815       0.31742694      -2.79459407       0.00000000
Si      -0.69906906      -2.38873302      -2.54975268       0.00000000
Si       0.46164231       2.30221683      -2.90775879       0.00000000
Si      -2.69764029       2.70549207      -0.01099422       0.00000000
Si       2.72066013       2.70428661       0.01125134       0.00000000
