10
Lattice="16.28999089631971 0.0 0.0 0.0 16.28999089631971 0.0 0.0 0.0 34.281931910070035" Properties=species:S:1:pos:R:3:initial_magmoms:R:1 pbc="T T T"
Si      -1.17643122      -1.47400065      -1.51889612       0.00000000
Si       1.80384057      -0.40695678       1.56730224       0.00000000
Si       1.60593336       1.29619530      -1.47038716       0.00000000
Si      -1.27562103       0.58515309       2.28910872       0.00000000
Si       0.85711464       1.03737978       3.24605510       0.00000000
Si      -3.01447590      -2.30698980      -0.17994596       0.00000000
Si      -2.43654743      -0.09896175      -2.96542305       0.00000000
Si       0.26999046       2.61087975      -2.95030471       0.00000000
Si       3.31110540       2.32510428      -0.08357940       0.00000000
Si       0.27767934      -2.82436020      -2.94183707       0.00000000
