10
Lattice="16.28999089631971 0.0 0.0 0.0 16.28999089631971 0.0 0.0 0.0 34.281931910070035" Properties=species:S:1:pos:R:3:initial_magmoms:R:1 pbc="T T T"
Si       0.40488795       1.86259860      -1.43380832       0.00000000
Si      -0.37719495      -1.95227505      -1.33329364       0.00000000
Si       1.83321144      -0.49699161       1.48529981       0.00000000
Si      -1.70147421       0.83367333       1.52818653       0.00000000
Si       1.08126504       0.50842719       3.43193184       0.00000000
Si      -1.16328519      -0.14196735       3.67087704       0.00000000
Si       1.66640184      -2.62070262      -2.31447736       0.00000000
Si       2.44833813       2.95363764      -0.78725072       0.00000000
Si       2.07637227      -2.79643914       1.81073837       0.00000000
Si      -1.02964203      -3.81223467      -0.05577673       0.00000000
