10
Lattice="16.28999089631971 0.0 0.0 0.0 16.28999089631971 0.0 0.0 0.0 34.281931910070035" Properties=species:S:1:pos:R:3:initial_magmoms:R:1 pbc="T T T"
Si       0.75194640      -1.00541880      -1.94663203       0.00000000
Si       1.00291014      -0.20712735       2.08204573       0.00000000
Si      -2.24455023      -0.65039454       0.23894520       0.00000000
Si      -0.06014268       2.30321052      -0.49671119       0.00000000
Si      -2.78273925       0.32524614      -1.90374531       0.00000000
Si      -0.03378546       1.78526997       3.03432977       0.00000000
Si      -2.32310061       2.46734856      -1.05999793       0.00000000
Si       3.26153071       0.30305916       1.50679460       0.00000000
Si       0.92046645       3.17552373       1.45053791       0.00000000
Si      -1.08126504      -0.50842719      -3.43193184       0.00000000
