10
Lattice="16.28999089631971 0.0 0.0 0.0 16.28999089631971 0.0 0.0 0.0 34.281931910070035" Properties=species:S:1:pos:R:3:initial_magmoms:R:1 pbc="T T T"
Si      -1.26011621       1.37503890      -1.44652693       0.00000000
Si       1.17643122       1.47400065       1.51889612       0.00000000
Si      -1.83804468      -0.83298915       1.33895016       0.00000000
Si       1.45411056      -1.35035955      -1.42294094       0.00000000
Si      -2.59273269       2.75169051      -0.04868037       0.00000000
Si      -2.70222497      -2.69270442       0.12423779       0.00000000
Si      -2.63054897       0.00508248      -2.80899451       0.00000000
Si       0.08444736      -2.71150308      -2.80632051       0.00000000
Si       0.08575056       2.71836117      -2.81142853       0.00000000
Si      -3.61891214       0.97725339       1.11981993       0.00000000
