10
Lattice="16.28999089631971 0.0 0.0 0.0 16.28999089631971 0.0 0.0 0.0 34.281931910070035" Properties=species:S:1:pos:R:3:initial_magmoms:R:1 pbc="T T T"
Si       1.35689184       1.35720135      -1.35629683       0.00000000
Si       1.35727847      -1.35711990       1.35722244       0.00000000
Si      -1.35703845      -1.35769005      -1.35759954       0.00000000
Si      -1.35780408       1.35799956       1.35746242       0.00000000
Si       2.71096944      -0.00063531      -2.71153092       0.00000000
Si       0.00021177      -2.71440270       2.71362212       0.00000000
Si       2.71423395      -2.71435383      -0.00075420       0.00000000
Si      -2.71515204       0.00026064       2.71348499       0.00000000
Si       2.71424047       2.71484253      -0.00006856       0.00000000
Si      -2.71518462      -2.71480995      -0.00023997       0.00000000
