10
Lattice="16.28999089631971 0.0 0.0 0.0 16.28999089631971 0.0 0.0 0.0 34.281931910070035" Properties=species:S:1:pos:R:3:initial_magmoms:R:1 pbc="T T T"
Si       0.83853819       1.74087972       1.33843593       0.00000000
Si      -1.83132180      -0.79806339      -1.32033506       0.00000000
Si       0.81712548       1.79854632      -1.41080513       0.00000000
Si       1.61475832      -1.86937524       0.01049028       0.00000000
Si       2.05407193       0.38428110      -2.78688265       0.00000000
Si      -0.68628141      -2.32678215      -2.77409548       0.00000000
Si       3.40756568      -0.90635931      -1.31303301       0.00000000
Si       2.04591064      -2.27180340       2.34725091       0.00000000
Si      -3.18497193      -2.24614665       0.08491639       0.00000000
Si       3.21319340       1.60510257       1.65369276       0.00000000
