10
Lattice="16.28999089631971 0.0 0.0 0.0 16.28999089631971 0.0 0.0 0.0 34.281931910070035" Properties=species:S:1:pos:R:3:initial_magmoms:R:1 pbc="T T T"
Si       2.18522272       0.78828939      -0.41117772       0.00000000
Si      -0.73744830       1.53789003       1.66599998       0.00000000
Si      -1.51773930      -0.82776006      -1.66812546       0.00000000
Si       0.07296291      -2.28284802       0.75451146       0.00000000
Si      -0.59144103      -0.19587096       3.25918509       0.00000000
Si       1.75407040       1.19071755      -2.74793835       0.00000000
Si       2.21223317      -2.27760264       1.67669594       0.00000000
Si       3.34177037      -1.28241396      -0.28495158       0.00000000
Si      -0.17795196      -2.36431431      -2.97313649       0.00000000
Si       2.37372897       2.54032776       1.60254408       0.00000000
