10
Lattice="16.28999089631971 0.0 0.0 0.0 16.28999089631971 0.0 0.0 0.0 34.281931910070035" Properties=species:S:1:pos:R:3:initial_magmoms:R:1 pbc="T T T"
Si      -0.14600727       1.73376099      -1.59318511       0.00000000
Si       2.04793060      -1.11189024       0.45265888       0.00000000
Si      -0.16990470       1.02754062       2.15438065       0.00000000
Si      -2.04345018      -1.09103904      -0.64655760       0.00000000
Si       0.59144103       0.19587096      -3.25918509       0.00000000
Si       0.66440394      -2.08697706      -2.50467363       0.00000000
Si      -2.41684956       2.16634194      -1.63295218       0.00000000
Si      -3.67751637       0.64764153      -0.37816420       0.00000000
Si       3.31696070       0.40037562       1.74118029       0.00000000
Si       2.80367420      -2.08173168      -1.58248914       0.00000000
