10
Lattice="16.28999089631971 0.0 0.0 0.0 16.28999089631971 0.0 0.0 0.0 34.281931910070035" Properties=species:S:1:pos:R:3:initial_magmoms:R:1 pbc="T T T"
Si      -2.13927026      -0.00524538      -0.92218448       0.00000000
Si       1.12118043      -2.02662261       0.37538736       0.00000000
Si      -0.75574360       0.96984144       2.03514803       0.00000000
Si       1.12953720       0.99518868      -1.96164752       0.00000000
Si      -0.34402525      -2.77910658       2.03165127       0.00000000
Si      -2.21223317       2.27760264      -1.67669594       0.00000000
Si      -1.15393636      -0.94441275       3.33148572       0.00000000
Si       3.26227287       1.44741537      -1.00470114       0.00000000
Si      -0.02701045       3.06589203      -2.08787367       0.00000000
Si      -2.80367420       2.08173168       1.58248914       0.00000000
