10
Lattice="16.28999089631971 0.0 0.0 0.0 16.28999089631971 0.0 0.0 0.0 34.281931910070035" Properties=species:S:1:pos:R:3:initial_magmoms:R:1 pbc="T T T"
Si       1.35381629       1.35459495      -1.33654014       0.00000000
Si      -1.35407760       1.35783666       1.35523409       0.00000000
Si       1.36101647      -1.35487188       1.35379425       0.00000000
Si      -1.35443390      -1.36585134      -1.36871718       0.00000000
Si       2.56194785      -0.03113019      -2.74037918       0.00000000
Si      -2.71096944       0.00063531       2.71153092       0.00000000
Si      -2.70934044       2.71366965      -0.00970179       0.00000000
Si      -2.70921012      -2.71394658      -0.00449094       0.00000000
Si       0.00326452      -2.71371852       2.71077672       0.00000000
Si       0.00327103       2.71547784       2.71146236       0.00000000
