10
Lattice="16.28999089631971 0.0 0.0 0.0 16.28999089631971 0.0 0.0 0.0 34.281931910070035" Properties=species:S:1:pos:R:3:initial_magmoms:R:1 pbc="T T T"
Si      -1.70825967      -0.99448821       1.24889868       0.00000000
Si       1.12226534       1.72185300       1.24908037       0.00000000
Si      -1.57855869       0.84975156      -1.60845536       0.00000000
Si       1.82123666      -1.77539823      -0.24646773       0.00000000
Si      -0.32458499      -2.30106024       2.67017695       0.00000000
Si       2.74590593      -0.16052166      -2.33797528       0.00000000
Si       2.38366520       0.41938605       2.70235398       0.00000000
Si      -2.58360282      -2.70313002      -0.24883318       0.00000000
Si      -0.69893127       0.32285151      -3.85138629       0.00000000
Si       3.59179676      -0.96633909       1.29851494       0.00000000
