10
Lattice="16.28999089631971 0.0 0.0 0.0 16.28999089631971 0.0 0.0 0.0 34.281931910070035" Properties=species:S:1:pos:R:3:initial_magmoms:R:1 pbc="T T T"
Si       1.26139986      -1.30246695       1.45327361       0.00000000
Si       1.86391809       0.89298522      -1.19498414       0.00000000
Si      -1.12226534      -1.72185300      -1.24908037       0.00000000
Si      -1.44792755       1.42407180       1.38369154       0.00000000
Si       2.46953142      -2.68819209       0.04943457       0.00000000
Si       2.62699056       0.05944221       2.78436292       0.00000000
Si      -0.09241643      -2.65706190       2.78981376       0.00000000
Si       0.69897132      -3.49725123      -1.49554810       0.00000000
Si       2.67928146       2.80228725      -0.04189254       0.00000000
Si       3.63613977      -0.97147044      -1.06682449       0.00000000
