10
Lattice="16.28999089631971 0.0 0.0 0.0 16.28999089631971 0.0 0.0 0.0 34.281931910070035" Properties=species:S:1:pos:R:3:initial_magmoms:R:1 pbc="T T T"
Si      -1.02617945      -1.77443712       1.16850030       0.00000000
Si       1.33261648      -1.37665161      -1.39784655       0.00000000
Si      -1.39519682       1.32318783      -1.39088732       0.00000000
Si       0.90584292       1.78059474       1.39369844       0.00000000
Si      -2.36596679      -0.23788287       2.47351133       0.00000000
Si       2.59273269      -2.75169051       0.04868037       0.00000000
Si      -2.54023721       2.85190659       0.06287310       0.00000000
Si      -0.03554470       2.67874389      -2.76017701       0.00000000
Si       2.67848325      -0.03332934      -2.76274815       0.00000000
Si       2.69865027       2.74361067       0.07017515       0.00000000
