10
Lattice="16.28999089631971 0.0 0.0 0.0 16.28999089631971 0.0 0.0 0.0 34.281931910070035" Properties=species:S:1:pos:R:3:initial_magmoms:R:1 pbc="T T T"
Si      -1.35349375       1.29064041      -1.47384964       0.00000000
Si      -1.79280735      -0.96301593       1.32352328       0.00000000
Si       1.34050410      -1.41042078      -1.45290337       0.00000000
Si       1.24183557       1.65872925       1.27354020       0.00000000
Si      -2.59044020       2.70490563      -0.09777212       0.00000000
Si      -3.40756568       0.90635931       1.31303301       0.00000000
Si       2.67644700      -2.72510523       0.02701418       0.00000000
Si      -2.69865027      -2.74361067      -0.07017515       0.00000000
Si      -0.02076975       2.65033413      -2.83340326       0.00000000
Si      -0.19437228       2.51146188       2.96672576       0.00000000
