10
Lattice="16.28999089631971 0.0 0.0 0.0 16.28999089631971 0.0 0.0 0.0 34.281931910070035" Properties=species:S:1:pos:R:3:initial_magmoms:R:1 pbc="T T T"
Si       2.06588151      -0.97384878      -0.36630265       0.00000000
Si      -1.46985484      -0.70134966      -1.71049795       0.00000000
Si       0.24723333       2.39041089       0.05461115       0.00000000
Si      -0.92466927      -1.61487657       2.09150755       0.00000000
Si       2.01249918       0.91090422       2.52023116       0.00000000
Si       2.48593545      -0.20279421      -2.55643937       0.00000000
Si      -2.74590593       0.16052166       2.33797528       0.00000000
Si      -0.62636679      -3.53227473       0.45457867       0.00000000
Si       0.24027750       2.77535988       2.39207151       0.00000000
Si       1.70711055      -3.35227023       0.00719921       0.00000000
