10
Lattice="16.28999089631971 0.0 0.0 0.0 16.28999089631971 0.0 0.0 0.0 34.281931910070035" Properties=species:S:1:pos:R:3:initial_magmoms:R:1 pbc="T T T"
Si      -1.35873913      -1.35609363       1.35636539       0.00000000
Si       1.35668007       1.35943308       1.35605686       0.00000000
Si       1.35739683      -1.35506736      -1.36054779       0.00000000
Si      -1.35863650       1.35811359      -1.36126771       0.00000000
Si      -0.00819387      -2.71697652      -2.69163710       0.00000000
Si       2.70466128       0.01790271      -2.70824328       0.00000000
Si       2.71388142      -2.71059084      -0.00130271       0.00000000
Si      -0.00109143      -2.71327869       2.71372496       0.00000000
Si       2.71410948       0.00184077       2.71348499       0.00000000
Si      -2.71608776      -2.71373481       0.00013713       0.00000000
