10
Lattice="16.28999089631971 0.0 0.0 0.0 16.28999089631971 0.0 0.0 0.0 34.281931910070035" Properties=species:S:1:pos:R:3:initial_magmoms:R:1 pbc="T T T"
Si       1.35442390      -1.36003581       1.35653680       0.00000000
Si       1.35650903       1.35709342      -1.35783952       0.00000000
Si      -1.35884546      -1.35778779      -1.35787380       0.00000000
Si      -1.36028958       1.35907470       1.36233045       0.00000000
Si       2.72025896       0.00304623       2.70230907       0.00000000
Si       2.71429681      -2.71282257      -0.00095989       0.00000000
Si       2.71384070       0.00008145      -2.71578188       0.00000000
Si       2.71463891       2.71521787      -0.00030854       0.00000000
Si      -2.71555833      -2.71432125       0.00003428       0.00000000
Si      -0.00157850      -2.71544526      -2.71547334       0.00000000
