10
Lattice="16.28999089631971 0.0 0.0 0.0 16.28999089631971 0.0 0.0 0.0 34.529650657227435" Properties=species:S:1:pos:R:3:initial_magmoms:R:1 pbc="T T T"
Si       2.28244077       0.22582827      -0.23773678       0.00000000
Si      -1.27783158      -1.23779565      -1.55666658       0.00000000
Si      -0.16211808      -1.13580396       2.06939765       0.00000000
Si      -0.54017966       2.31355045       0.08328556       0.00000000
Si       2.31039441       1.36863693      -2.24125182       0.00000000
Si      -3.37780385       0.46765332       0.91092722       0.00000000
Si       2.74960539       1.36014984       1.78249062       0.00000000
Si      -2.74130468       2.17094942      -0.63486251       0.00000000
Si       1.38046347       0.16206921       3.34513084       0.00000000
Si      -3.24614807      -1.59353667      -0.30638176       0.00000000
