10
Lattice="16.28999089631971 0.0 0.0 0.0 16.28999089631971 0.0 0.0 0.0 34.529650657227435" Properties=species:S:1:pos:R:3:initial_magmoms:R:1 pbc="T T T"
Si       1.39005828      -1.23447412      -1.41547476       0.00000000
Si       1.35277047       1.34511417       1.36512014       0.00000000
Si      -1.36138788      -1.36854245       1.36246136       0.00000000
Si      -1.39297419       1.27853694      -1.47884361       0.00000000
Si      -0.26951805      -2.23404318      -2.79623826       0.00000000
Si      -2.26028637      -0.59214150      -2.74855279       0.00000000
Si       2.71666701       2.68910433      -0.02390144       0.00000000
Si      -2.72670165       2.68014483      -0.01156399       0.00000000
Si       2.42924625       0.20460240      -2.95545457       0.00000000
Si      -0.00169416       2.70267390       2.72331018       0.00000000
