10
Lattice="16.28999089631971 0.0 0.0 0.0 16.28999089631971 0.0 0.0 0.0 34.529650657227435" Properties=species:S:1:pos:R:3:initial_magmoms:R:1 pbc="T T T"
Si      -1.35604476      -1.35779268       1.35725774       0.00000000
Si      -1.35793440       1.35622395      -1.35853533       0.00000000
Si       1.35853713       1.35705474       1.35729227       0.00000000
Si       1.35883035      -1.35883687      -1.36333496       0.00000000
Si      -2.71239903       2.71378368      -0.00034530       0.00000000
Si      -2.71295289      -0.00014661       2.71344505       0.00000000
Si       0.00079821       2.71358820       2.71347958       0.00000000
Si       2.71518462       2.71278999      -0.00048342       0.00000000
Si       0.00087966      -2.71545147       2.71403206       0.00000000
Si      -2.71399545      -2.71559678      -0.00093230       0.00000000
