10
Lattice="16.28999089631971 0.0 0.0 0.0 16.28999089631971 0.0 0.0 0.0 34.529650657227435" Properties=species:S:1:pos:R:3:initial_magmoms:R:1 pbc="T T T"
Si       1.05539652       1.85899851       0.99328049       0.00000000
Si       0.13660794      -1.47486402       1.83594255       0.00000000
Si      -2.30143491       0.51147342      -0.22057553       0.00000000
Si       1.01375928      -0.53208027      -2.13524573       0.00000000
Si       2.21798124      -0.81300132       2.66983408       0.00000000
Si      -0.23455971       3.68579169       0.10410695       0.00000000
Si      -2.46664809       2.78953218       0.33531762       0.00000000
Si       0.10277361      -3.64385146       0.96417197       0.00000000
Si      -0.81194247      -1.33217991      -3.47634358       0.00000000
Si       3.12761484       2.38125591       0.07178718       0.00000000
