10
Lattice="16.28999089631971 0.0 0.0 0.0 16.28999089631971 0.0 0.0 0.0 34.529650657227435" Properties=species:S:1:pos:R:3:initial_magmoms:R:1 pbc="T T T"
Si       1.32030450      -1.30327330      -1.44403080       0.00000000
Si       1.82570175       0.80009964       1.34109785       0.00000000
Si      -1.36296801       1.42410438      -1.38954298       0.00000000
Si      -1.43218422      -1.33113735       1.43463873       0.00000000
Si       2.61723285      -2.67972338      -0.08718742       0.00000000
Si       2.66592366       2.70528030      -0.05203621       0.00000000
Si       0.81194247       1.33217991       3.47634358       0.00000000
Si      -0.01376505      -2.66399234      -2.78447259       0.00000000
Si       2.70172908       0.05196510      -2.78174474       0.00000000
Si      -2.79380016      -2.69683298       0.03812076       0.00000000
