10
Lattice="16.28999089631971 0.0 0.0 0.0 16.28999089631971 0.0 0.0 0.0 34.529650657227435" Properties=species:S:1:pos:R:3:initial_magmoms:R:1 pbc="T T T"
Si      -1.62658908       1.05731874       1.25815758       0.00000000
Si      -1.34640108      -1.34340372      -1.35083522       0.00000000
Si       1.36664955       1.38217392      -1.34299698       0.00000000
Si       1.32659244      -1.39698153       1.38505412       0.00000000
Si       0.22944465       1.95589143       2.75042633       0.00000000
Si       2.13610770       0.37429533       2.75909328       0.00000000
Si      -2.70229923      -2.67815745       0.04754736       0.00000000
Si       0.00353493      -2.69306280      -2.70577947       0.00000000
Si      -2.70995553       0.01902672      -2.70253368       0.00000000
Si       2.73139317      -2.69094510       0.01015172       0.00000000
