10
Lattice="16.28999089631971 0.0 0.0 0.0 16.28999089631971 0.0 0.0 0.0 34.529650657227435" Properties=species:S:1:pos:R:3:initial_magmoms:R:1 pbc="T T T"
Si       1.40480073      -1.29396357      -1.37490240       0.00000000
Si      -1.32659244       1.39698153      -1.38505412       0.00000000
Si       0.80951526       1.77127686       1.37403916       0.00000000
Si      -0.84022191      -1.90518066       1.39313406       0.00000000
Si      -1.09714779       3.35287296       1.36537221       0.00000000
Si      -2.66592366      -2.70528030       0.05203621       0.00000000
Si       0.03580542      -2.65331520      -2.72970853       0.00000000
Si       2.65930992      -2.74318713      -0.02116669       0.00000000
Si      -2.67299352       0.05357781      -2.73588934       0.00000000
Si       2.67173919       2.74566321       0.14550803       0.00000000
