10
Lattice="16.28999089631971 0.0 0.0 0.0 16.28999089631971 0.0 0.0 0.0 34.529650657227435" Properties=species:S:1:pos:R:3:initial_magmoms:R:1 pbc="T T T"
Si       2.00583657       1.30947165       0.25493255       0.00000000
Si       0.51453594      -2.27607138      -0.62951041       0.00000000
Si      -0.64804878       0.39592845      -2.30606401       0.00000000
Si      -1.81408698       0.43184790       1.61640291       0.00000000
Si       0.85675626      -3.09319407       1.50318012       0.00000000
Si       1.75964580       2.72663649      -1.59119625       0.00000000
Si      -1.56683736      -2.93793408      -1.46340194       0.00000000
Si       1.42416954       0.91818585      -3.22755731       0.00000000
Si      -3.85411626      -0.34513623       0.62771487       0.00000000
Si       1.77510501       2.91791367       1.98773498       0.00000000
