10
Lattice="16.28999089631971 0.0 0.0 0.0 16.28999089631971 0.0 0.0 0.0 34.529650657227435" Properties=species:S:1:pos:R:3:initial_magmoms:R:1 pbc="T T T"
Si       2.07221832       0.52225740      -0.92149330       0.00000000
Si      -1.05539652      -1.85899851      -0.99328049       0.00000000
Si      -1.28995623       1.82679318      -0.88917353       0.00000000
Si       0.64804878      -0.39592845       2.30606401       0.00000000
Si       1.16258472      -2.67199983       1.67655359       0.00000000
Si       2.40769458       2.33070804       0.71486776       0.00000000
Si      -0.91878858      -3.33386253       0.84266207       0.00000000
Si      -3.52204461       0.93053367      -0.65796286       0.00000000
Si       1.60809993       1.28537874      -3.14762112       0.00000000
Si       2.65388535       0.91354320       2.56099656       0.00000000
