10
Lattice="16.28999089631971 0.0 0.0 0.0 16.28999089631971 0.0 0.0 0.0 34.529650657227435" Properties=species:S:1:pos:R:3:initial_magmoms:R:1 pbc="T T T"
Si       0.32889510      -2.19113532      -0.72246428       0.00000000
Si      -0.67691466       0.80601291      -2.15713754       0.00000000
Si      -1.25087652      -0.96837534       1.81367091       0.00000000
Si       1.83801699       0.93442698       1.26430387       0.00000000
Si       2.25108252      -1.22184774       2.34111162       0.00000000
Si       1.60941942      -3.08718306       1.02974382       0.00000000
Si      -1.19303073       3.07219626      -1.83238600       0.00000000
Si      -1.96709895      -3.01029426      -1.13961723       0.00000000
Si       0.25651863      -1.07619885       3.62278391       0.00000000
Si      -3.23464014       0.17174547       2.13286318       0.00000000
