10
Lattice="16.28999089631971 0.0 0.0 0.0 16.28999089631971 0.0 0.0 0.0 34.529650657227435" Properties=species:S:1:pos:R:3:initial_magmoms:R:1 pbc="T T T"
Si       1.36751292      -1.21725396       1.46510426       0.00000000
Si       1.10693808       1.49617134      -1.50081971       0.00000000
Si      -0.81606384      -1.92578751      -1.18819702       0.00000000
Si      -1.36340784       1.49231061       1.44287405       0.00000000
Si       2.62254339      -2.66362677       0.01393272       0.00000000
Si       2.66176971       2.68403814      -0.04481951       0.00000000
Si      -0.00778662      -2.56802076       2.82293173       0.00000000
Si      -2.77274045      -2.65163733       0.02889443       0.00000000
Si      -2.31844167      -1.28534616      -2.81515707       0.00000000
Si       2.70995553       0.14757111       2.83173680       0.00000000
