10
Lattice="16.28999089631971 0.0 0.0 0.0 16.28999089631971 0.0 0.0 0.0 34.529650657227435" Properties=species:S:1:pos:R:3:initial_magmoms:R:1 pbc="T T T"
Si       1.34672688       1.32577794      -1.37729876       0.00000000
Si       1.35299853      -1.35912357       1.35535861       0.00000000
Si      -1.35941679       1.35413883       1.35463348       0.00000000
Si      -1.34244261      -1.36482507      -1.36663254       0.00000000
Si      -0.04818582       2.53646703      -2.87655631       0.00000000
Si      -0.00195480       2.71259451       2.71171857       0.00000000
Si       2.71223613      -0.00167787       2.71209840       0.00000000
Si       2.71274112       2.71404432      -0.00977190       0.00000000
Si      -2.71660185       2.71204065      -0.00821806       0.00000000
Si      -2.71730232      -0.00164529       2.71182216       0.00000000
