10
Lattice="16.28999089631971 0.0 0.0 0.0 16.28999089631971 0.0 0.0 0.0 34.529650657227435" Properties=species:S:1:pos:R:3:initial_magmoms:R:1 pbc="T T T"
Si       1.35941679      -1.35413883      -1.35463348       0.00000000
Si      -1.35788553      -1.35578412       1.35718868       0.00000000
Si       1.35746199       1.35845568       1.35708509       0.00000000
Si      -1.35718506       1.35790182      -1.36285154       0.00000000
Si       2.71241532      -2.71326240       0.00072512       0.00000000
Si      -0.00034209      -2.71362078       2.71468812       0.00000000
Si      -2.71583622      -2.71326240       0.00006906       0.00000000
Si       2.71521720       0.00118917       2.71492983       0.00000000
Si      -2.71622718       0.00096111       2.71417018       0.00000000
Si       2.71437012       2.71720458      -0.00020718       0.00000000
