10
Lattice="16.28999089631971 0.0 0.0 0.0 16.28999089631971 0.0 0.0 0.0 34.529650657227435" Properties=species:S:1:pos:R:3:initial_magmoms:R:1 pbc="T T T"
Si      -1.62620138      -1.63073163      -0.40247783       0.00000000
Si      -0.35012097       2.03225895      -1.10470773       0.00000000
Si      -0.53799354       0.34523397       2.33278997       0.00000000
Si       2.10385350      -1.01498103      -0.76407254       0.00000000
Si       2.19100500      -1.27461105       1.92506363       0.00000000
Si       0.83631231       2.16705870       2.50840787       0.00000000
Si      -0.94477113      -2.97038083       1.45363005       0.00000000
Si       0.20110005       3.43863981       0.67909502       0.00000000
Si       0.15638400      -1.70511991       3.10632364       0.00000000
Si      -3.58222706      -0.43834761       0.42968721       0.00000000
