10
Lattice="16.28999089631971 0.0 0.0 0.0 16.28999089631971 0.0 0.0 0.0 34.529650657227435" Properties=species:S:1:pos:R:3:initial_magmoms:R:1 pbc="T T T"
Si      -1.97545572      -1.10214882      -0.61038098       0.00000000
Si       0.26969724      -1.03837347       2.12440341       0.00000000
Si      -0.64337355       2.21886090       0.58873087       0.00000000
Si       1.79820423      -0.26098209      -1.57645208       0.00000000
Si      -0.95477319      -3.22599015      -0.80688933       0.00000000
Si      -3.06255258      -0.90567513       1.48643323       0.00000000
Si       1.41177285       3.22698384       0.12092290       0.00000000
Si       0.05146011      -3.29383800       1.42338205       0.00000000
Si      -1.59889608      -0.15644916       3.23273676       0.00000000
Si       1.47681882       1.48498011      -3.12134405       0.00000000
