10
Lattice="16.28999089631971 0.0 0.0 0.0 16.28999089631971 0.0 0.0 0.0 34.529650657227435" Properties=species:S:1:pos:R:3:initial_magmoms:R:1 pbc="T T T"
Si      -1.43365032      -1.31108436      -1.43275138       0.00000000
Si       1.30663719      -1.41208236       1.46518022       0.00000000
Si      -1.41832143       1.29463495       1.48334283       0.00000000
Si       1.02877866       1.79946575      -1.30295435       0.00000000
Si      -0.96198966       3.44136743      -1.25526887       0.00000000
Si      -2.77633402       2.63116473       0.08940422       0.00000000
Si      -2.73534675      -2.67517638       0.07689067       0.00000000
Si       2.68835499       2.79903481       0.07780916       0.00000000
Si       2.65230522      -0.05150898       2.85398426       0.00000000
Si      -0.06309117       2.66496648       2.85574528       0.00000000
