10
Lattice="16.28999089631971 0.0 0.0 0.0 16.28999089631971 0.0 0.0 0.0 34.529650657227435" Properties=species:S:1:pos:R:3:initial_magmoms:R:1 pbc="T T T"
Si      -1.35291708      -1.34418564      -1.39320312       0.00000000
Si       1.35764118       1.36971207      -1.39240894       0.00000000
Si      -1.37106414       1.31145903       1.49399523       0.00000000
Si       1.36415718      -1.48592493       1.47669587       0.00000000
Si       0.28841445       2.51199945       2.84852512       0.00000000
Si      -2.71562445      -2.69656515      -0.03159465       0.00000000
Si       2.71676475      -2.71138905      -0.02441248       0.00000000
Si      -2.70860346       2.72982933      -0.00925395       0.00000000
Si       2.71423980       2.72613150      -0.01937114       0.00000000
Si      -0.00083079      -2.70418887      -2.75325776       0.00000000
