10
Lattice="16.28999089631971 0.0 0.0 0.0 16.28999089631971 0.0 0.0 0.0 34.529650657227435" Properties=species:S:1:pos:R:3:initial_magmoms:R:1 pbc="T T T"
Si      -0.69437754       2.05035388      -0.77353367       0.00000000
Si      -1.10115513      -1.26526092      -1.65269359       0.00000000
Si       2.03462100       0.43050886      -1.18126001       0.00000000
Si      -0.85468743      -0.57631414       2.17764817       0.00000000
Si      -0.15638400       1.70511991      -3.10632364       0.00000000
Si      -0.62301105      -3.00528738       2.09526037       0.00000000
Si      -2.97201995       2.31868276      -0.65312871       0.00000000
Si       0.38116971      -2.88115758      -2.53295847       0.00000000
Si       2.66369193       2.73205780      -0.91710803       0.00000000
Si      -1.78258538       0.07438829      -3.50880147       0.00000000
