10
Lattice="16.28999089631971 0.0 0.0 0.0 16.28999089631971 0.0 0.0 0.0 34.529650657227435" Properties=species:S:1:pos:R:3:initial_magmoms:R:1 pbc="T T T"
Si       0.07330500      -0.39381075       2.27329535       0.00000000
Si      -2.15212077       0.85859703      -0.30544946       0.00000000
Si       0.13835097      -2.13581448      -0.96897160       0.00000000
Si       1.91215278       1.20233348      -0.67847348       0.00000000
Si      -2.61928539      -0.27572454      -2.32567686       0.00000000
Si       0.04329882       1.75710849       3.12655803       0.00000000
Si      -1.98184140      -1.40193369       2.74110332       0.00000000
Si       2.28382542      -2.12226120      -1.97033203       0.00000000
Si       2.62461222       0.09526392      -2.60626496       0.00000000
Si      -3.52126269      -0.33948360       1.25719075       0.00000000
