10
Lattice="16.28999089631971 0.0 0.0 0.0 16.28999089631971 0.0 0.0 0.0 34.529650657227435" Properties=species:S:1:pos:R:3:initial_magmoms:R:1 pbc="T T T"
Si       1.35593073       1.35720135       1.35725774       0.00000000
Si      -1.35760860       1.35728280      -1.35670526       0.00000000
Si       1.35762489      -1.35823251      -1.35680885       0.00000000
Si      -1.35837423      -1.35936303       1.35736133       0.00000000
Si       2.71261080      -0.00087966      -2.71479171       0.00000000
Si      -0.00096111       2.71301805      -2.71448094       0.00000000
Si      -2.71534752       2.71381626      -0.00051795       0.00000000
Si       2.71528236       2.71401174       0.00048342       0.00000000
Si      -2.71614573       0.00022806      -2.71399753       0.00000000
Si       2.71498914      -2.71547983       0.00006906       0.00000000
