10
Lattice="16.28999089631971 0.0 0.0 0.0 16.28999089631971 0.0 0.0 0.0 34.529650657227435" Properties=species:S:1:pos:R:3:initial_magmoms:R:1 pbc="T T T"
Si       0.71245944      -1.10706956      -1.92779147       0.00000000
Si      -1.91215278      -1.20233348       0.67847348       0.00000000
Si       0.09391185       2.32074459      -0.53251657       0.00000000
Si       1.25284761       0.35526323       2.00617382       0.00000000
Si      -0.29059731       1.95259059       2.76758758       0.00000000
Si      -1.57112163       2.84863833       1.01537947       0.00000000
Si       0.37167264      -3.32459468      -1.29185854       0.00000000
Si       2.94091515      -0.37172267      -2.02181576       0.00000000
Si       3.27415968       1.16945210       1.25166601       0.00000000
Si       2.41650747       2.83363524      -0.16881556       0.00000000
