10
Lattice="16.28999089631971 0.0 0.0 0.0 16.28999089631971 0.0 0.0 0.0 34.529650657227435" Properties=species:S:1:pos:R:3:initial_magmoms:R:1 pbc="T T T"
Si       1.90115703       1.02833883      -0.84974065       0.00000000
Si      -1.57094244      -0.70022565      -1.61833657       0.00000000
Si       0.26433783      -1.72585545       1.68228552       0.00000000
Si      -1.85285718       1.16043444       1.20256482       0.00000000
Si      -2.97393498      -0.82196082       0.28424824       0.00000000
Si      -0.58647258      -0.02867040       3.27244588       0.00000000
Si       1.10130174       3.22551774      -0.95702433       0.00000000
Si      -1.37147139       1.04966244      -3.19451242       0.00000000
Si      -1.92236661      -2.77209373       1.48087396       0.00000000
Si       1.87281243      -3.15107963      -0.68548301       0.00000000
