10
Lattice="16.28999089631971 0.0 0.0 0.0 16.28999089631971 0.0 0.0 0.0 34.529650657227435" Properties=species:S:1:pos:R:3:initial_magmoms:R:1 pbc="T T T"
Si       1.33447680       1.34315937      -1.37241626       0.00000000
Si       1.35324288      -1.36018242       1.35832816       0.00000000
Si      -1.36032903       1.35371529       1.35863892       0.00000000
Si      -1.35571896      -1.36428750      -1.39750897       0.00000000
Si       2.71495656       2.71337643      -0.00386732       0.00000000
Si      -0.00193851       2.71278999       2.71586213       0.00000000
Si       2.71308321      -0.00210141       2.71600025       0.00000000
Si      -2.71674846       2.71292031      -0.00448886       0.00000000
Si      -2.71697652      -0.00201996       2.71641461       0.00000000
Si      -0.00174303      -2.71753527       2.71631102       0.00000000
