10
Lattice="16.28999089631971 0.0 0.0 0.0 16.28999089631971 0.0 0.0 0.0 34.529650657227435" Properties=species:S:1:pos:R:3:initial_magmoms:R:1 pbc="T T T"
Si      -1.36389654      -1.34399016       1.38902158       0.00000000
Si       1.35280305       1.37178090       1.38394572       0.00000000
Si      -1.44748053       1.27752696      -1.42532953       0.00000000
Si       1.33305957      -1.39743765      -1.56767119       0.00000000
Si      -2.71666701      -2.68910433       0.02390144       0.00000000
Si       2.71383255      -2.70542691      -0.00907440       0.00000000
Si      -2.70251100       2.72389977       0.02584200       0.00000000
Si       2.70829395       2.72218932      -0.00035911       0.00000000
Si      -0.00596214      -2.70021411       2.74755691       0.00000000
Si      -0.28742076      -2.48450193      -2.93155314       0.00000000
