10
Lattice="16.28999089631971 0.0 0.0 0.0 16.28999089631971 0.0 0.0 0.0 34.529650657227435" Properties=species:S:1:pos:R:3:initial_magmoms:R:1 pbc="T T T"
Si      -0.80951526      -1.77127686      -1.37403916       0.00000000
Si       0.46411839      -0.76312134       2.22612782       0.00000000
Si       1.86222393       0.97438635      -1.22853113       0.00000000
Si      -1.90666305       1.58159610      -0.00866695       0.00000000
Si      -2.13610770      -0.37429533      -2.75909328       0.00000000
Si       0.58593501       2.35212939      -2.73226372       0.00000000
Si      -2.89805616       0.54141444       2.25844759       0.00000000
Si      -1.60809993      -1.28537874       3.14762112       0.00000000
Si      -0.76667256       3.57759351      -1.23115538       0.00000000
Si       2.87006994       2.75338467      -0.10396884       0.00000000
