10
Lattice="16.28999089631971 0.0 0.0 0.0 16.28999089631971 0.0 0.0 0.0 34.529650657227435" Properties=species:S:1:pos:R:3:initial_magmoms:R:1 pbc="T T T"
Si       1.35729909       1.35560493      -1.35767209       0.00000000
Si      -1.35643572       1.35700587       1.35746491       0.00000000
Si       1.35795069      -1.35726651       1.35739586       0.00000000
Si      -1.35923760      -1.35744570      -1.35673979       0.00000000
Si      -2.71223613       0.00167787      -2.71209840       0.00000000
Si       2.71363707       0.00061902       2.71396300       0.00000000
Si       0.00135207       2.71388142       2.71427377       0.00000000
Si      -2.71419093       2.71427238      -0.00037983       0.00000000
Si      -2.71443528      -2.71521720       0.00017265       0.00000000
Si       2.71567332       2.71495656      -0.00024171       0.00000000
