10
Lattice="16.28999089631971 0.0 0.0 0.0 16.28999089631971 0.0 0.0 0.0 34.529650657227435" Properties=species:S:1:pos:R:3:initial_magmoms:R:1 pbc="T T T"
Si       1.35558864       1.35467640       1.35577296       0.00000000
Si       1.35299853      -1.35549090      -1.35781021       0.00000000
Si      -1.35928647       1.35777150      -1.35749944       0.00000000
Si      -1.35858600      -1.36552554       1.37251985       0.00000000
Si      -0.06845058       2.55943593       2.78195192       0.00000000
Si       2.71081890      -2.71156824       0.00690593       0.00000000
Si      -2.71397916      -2.70977634       0.00269331       0.00000000
Si       2.70743058       2.71808424       0.00124307       0.00000000
Si       2.71199178       0.00172674      -2.71475718       0.00000000
Si      -0.00268785      -2.71337643      -2.71437736       0.00000000
