10
Lattice="16.28999089631971 0.0 0.0 0.0 16.28999089631971 0.0 0.0 0.0 34.529650657227435" Properties=species:S:1:pos:R:3:initial_magmoms:R:1 pbc="T T T"
Si      -2.12410197       0.99856071      -0.20061738       0.00000000
Si       0.56961243      -0.84418038       2.13410625       0.00000000
Si       0.23073156      -1.60844202      -1.73280243       0.00000000
Si       1.34128602       1.96493238      -0.53489912       0.00000000
Si      -1.82143377       1.14565941      -2.59818502       0.00000000
Si      -0.01545921      -0.19127718      -3.57893123       0.00000000
Si       0.75984705       1.30526883       3.32821130       0.00000000
Si       3.50891487       1.19848788      -0.31546306       0.00000000
Si       2.61967635      -2.02266414       1.74595823       0.00000000
Si       2.51009352      -2.30874912      -1.94743886       0.00000000
