10
Lattice="16.28999089631971 0.0 0.0 0.0 16.28999089631971 0.0 0.0 0.0 34.529650657227435" Properties=species:S:1:pos:R:3:initial_magmoms:R:1 pbc="T T T"
Si       1.30823361      -1.31637861       1.50895694       0.00000000
Si       1.10166012       1.38020283      -1.64578908       0.00000000
Si      -1.40988321       1.38042470       1.48820115       0.00000000
Si      -0.91240290      -1.96744104      -1.31703209       0.00000000
Si       2.62611090      -2.65838139       0.06726725       0.00000000
Si       2.64898206       2.67942222      -0.04710192       0.00000000
Si       2.65683384       0.03075552       2.88420808       0.00000000
Si      -0.05654259      -2.68600923       2.87350389       0.00000000
Si      -2.73582405       2.87763406       0.09922791       0.00000000
Si      -0.05634711       2.74216153       2.87502319       0.00000000
