10
Lattice="16.28999089631971 0.0 0.0 0.0 16.28999089631971 0.0 0.0 0.0 34.529650657227435" Properties=species:S:1:pos:R:3:initial_magmoms:R:1 pbc="T T T"
Si      -1.35690813      -1.35874890       1.35729227       0.00000000
Si       1.35839052       1.35687555       1.35770662       0.00000000
Si      -1.35754344       1.35580041      -1.36229907       0.00000000
Si       1.35778779      -1.35729909      -1.36419820       0.00000000
Si       0.00003258       2.71425706       2.71468812       0.00000000
Si      -2.71484253       2.71411176      -0.00027624       0.00000000
Si       2.71637379       2.71262849       0.00072512       0.00000000
Si      -2.71498914      -0.00011403       2.71517154       0.00000000
Si       2.71590138      -0.00100998       2.71486077       0.00000000
Si       0.00084708      -2.71601541       2.71513701       0.00000000
