10
Lattice="16.28999089631971 0.0 0.0 0.0 16.28999089631971 0.0 0.0 0.0 34.529650657227435" Properties=species:S:1:pos:R:3:initial_magmoms:R:1 pbc="T T T"
Si      -1.35558864      -1.35467640      -1.35577296       0.00000000
Si      -1.42403922       1.20475953       1.42617896       0.00000000
Si       1.35184194       1.36340784      -1.35452989       0.00000000
Si       1.32693453      -1.32929658       1.43985271       0.00000000
Si       0.45216153       2.17502451       2.71265087       0.00000000
Si      -0.43003971      -2.31894666       2.64504178       0.00000000
Si      -2.21443002      -0.65730150       2.75235999       0.00000000
Si       2.13954489       0.34033068       2.89020243       0.00000000
Si      -0.00259011      -2.71016730      -2.71358317       0.00000000
Si       2.71353933       0.00197109      -2.71265087       0.00000000
