10
Lattice="16.28999089631971 0.0 0.0 0.0 16.28999089631971 0.0 0.0 0.0 34.529650657227435" Properties=species:S:1:pos:R:3:initial_magmoms:R:1 pbc="T T T"
Si      -0.49677984       0.77683005      -2.14432703       0.00000000
Si      -0.50388228      -2.29664565      -0.14378155       0.00000000
Si       2.32803648       0.29830983       0.48534904       0.00000000
Si      -1.60847460       1.42522417       2.36776853       0.00000000
Si       1.79809020      -1.32185205       2.35502708       0.00000000
Si      -2.88290646       0.41623623      -1.86208151       0.00000000
Si      -1.87281243       3.15107963       0.68548301       0.00000000
Si       1.29736818      -3.39353280       0.90502265       0.00000000
Si       0.33901119       0.18590148       3.75289171       0.00000000
Si      -2.03706450      -2.88567576       1.63515252       0.00000000
