10
Lattice="16.28999089631971 0.0 0.0 0.0 16.28999089631971 0.0 0.0 0.0 34.529650657227435" Properties=species:S:1:pos:R:3:initial_magmoms:R:1 pbc="T T T"
Si      -1.06937334      -1.75707102       1.18720153       0.00000000
Si       1.80898236       1.05592269       1.15296536       0.00000000
Si      -1.72916721       1.84551853      -0.26518687       0.00000000
Si       1.69017614      -1.24919769      -1.57562237       0.00000000
Si       2.17830599       1.07138515      -2.01984658       0.00000000
Si      -2.28895677      -0.27226798       2.55188315       0.00000000
Si       0.03526785       2.04433798      -2.89296381       0.00000000
Si       0.46155371       2.45772931       2.54517748       0.00000000
Si      -2.29843755      -3.03210561      -0.48931896       0.00000000
Si      -3.63151341       1.02558093       0.99504046       0.00000000
