10
Lattice="16.28999089631971 0.0 0.0 0.0 16.28999089631971 0.0 0.0 0.0 34.529650657227435" Properties=species:S:1:pos:R:3:initial_magmoms:R:1 pbc="T T T"
Si       1.34206861       1.34878518       1.37493693       0.00000000
Si       1.35371433      -1.35657561      -1.35781021       0.00000000
Si      -1.35959598       1.35766160      -1.35601467       0.00000000
Si      -1.35360126      -1.34733918       1.37507505       0.00000000
Si      -0.21129759       2.57303570       2.68143605       0.00000000
Si       2.71291121       0.00118307      -2.71417018       0.00000000
Si      -0.00172104      -2.71377696      -2.71434283       0.00000000
Si       2.71568051      -2.71255521       0.00511039       0.00000000
Si      -2.71251306       2.71638770       0.00545569       0.00000000
Si       2.70892016       2.72104664       0.00728576       0.00000000
