10
Lattice="16.28999089631971 0.0 0.0 0.0 16.28999089631971 0.0 0.0 0.0 34.529650657227435" Properties=species:S:1:pos:R:3:initial_magmoms:R:1 pbc="T T T"
Si       2.20112502       0.14260103       0.71814808       0.00000000
Si      -1.16818848       2.04605006       0.12178615       0.00000000
Si      -0.40560471      -0.71144687      -2.24152805       0.00000000
Si      -0.63649917      -1.70329610       1.54578973       0.00000000
Si       2.74130468      -2.17094942       0.63486251       0.00000000
Si      -2.66602140      -1.86780881      -1.76519126       0.00000000
Si       1.95801306       0.94666566       3.00415035       0.00000000
Si      -0.20158875       1.38855308      -3.44913420       0.00000000
Si      -2.82778110      -1.25595641       2.14080501       0.00000000
Si      -0.50484339      -3.76448609       0.32848075       0.00000000
