10
Lattice="16.28999089631971 0.0 0.0 0.0 16.28999089631971 0.0 0.0 0.0 34.529650657227435" Properties=species:S:1:pos:R:3:initial_magmoms:R:1 pbc="T T T"
Si      -1.92549429      -0.87009777       1.09690403       0.00000000
Si      -0.67961880       1.38100104      -1.84599069       0.00000000
Si       0.76659111       1.05191046       2.02350772       0.00000000
Si       1.95602568      -1.19238402      -0.83216505       0.00000000
Si       3.58222706       0.43834761      -0.42968721       0.00000000
Si       3.04423352       0.78358158       1.90310276       0.00000000
Si      -3.46263498      -1.43666071      -0.54032028       0.00000000
Si       2.63745593      -2.53203322       1.02394283       0.00000000
Si      -2.52933201       0.66443652       2.81772466       0.00000000
Si       0.23695434       3.30568083       2.03700882       0.00000000
