10
Lattice="16.28999089631971 0.0 0.0 0.0 16.28999089631971 0.0 0.0 0.0 34.529650657227435" Properties=species:S:1:pos:R:3:initial_magmoms:R:1 pbc="T T T"
Si      -1.73379357      -1.51807066      -0.58524338       0.00000000
Si      -0.10016721       0.90289117       2.22022325       0.00000000
Si      -0.96736536       1.83834442      -1.24099634       0.00000000
Si       2.36665097      -0.60079312      -0.46673755       0.00000000
Si      -2.61032589       0.79498621       2.49715120       0.00000000
Si       2.04287093      -0.07006166       3.09334048       0.00000000
Si       3.43885877       0.61174000       1.32821828       0.00000000
Si      -3.32524512      -1.30267693       1.24199770       0.00000000
Si      -0.89210556       3.70842013       0.31187198       0.00000000
Si      -1.96916778      -1.58210665      -3.00097362       0.00000000
