10
Lattice="16.28999089631971 0.0 0.0 0.0 16.28999089631971 0.0 0.0 0.0 34.529650657227435" Properties=species:S:1:pos:R:3:initial_magmoms:R:1 pbc="T T T"
Si       2.27764241      -0.26832888      -0.12040496       0.00000000
Si      -0.52963677       2.25377037       0.01350110       0.00000000
Si      -0.76659111      -1.05191046      -2.02350772       0.00000000
Si      -1.21668381      -0.45585936       2.05651808       0.00000000
Si      -3.29592312      -0.38747394       0.79421694       0.00000000
Si      -2.89898469       1.83068649      -0.12416869       0.00000000
Si      -2.69208540      -1.92200823      -0.92660369       0.00000000
Si       2.81563595      -0.61356285      -2.45319493       0.00000000
Si       1.18943457      -2.24429448      -2.85567276       0.00000000
Si       2.97201995      -2.31868276       0.65312871       0.00000000
