10
Lattice="16.28999089631971 0.0 0.0 0.0 16.28999089631971 0.0 0.0 0.0 34.529650657227435" Properties=species:S:1:pos:R:3:initial_magmoms:R:1 pbc="T T T"
Si      -2.32803648      -0.29830983      -0.48534904       0.00000000
Si       1.59145155      -0.21539373      -1.82724107       0.00000000
Si      -0.52994628      -1.62016188       1.86967804       0.00000000
Si       0.71491923       2.09766314       1.25515350       0.00000000
Si       2.16145494      -2.48340156      -1.83701297       0.00000000
Si       3.32524512       1.30267693      -1.24199770       0.00000000
Si      -1.98902529      -0.11240835       3.26754267       0.00000000
Si      -1.03066830      -3.69184263       0.41967361       0.00000000
Si      -2.82481632       0.47852022      -2.62967607       0.00000000
Si      -2.83191876      -2.59495548      -0.62913059       0.00000000
