10
Lattice="16.28999089631971 0.0 0.0 0.0 16.28999089631971 0.0 0.0 0.0 34.529650657227435" Properties=species:S:1:pos:R:3:initial_magmoms:R:1 pbc="T T T"
Si      -0.33557400       0.31534182      -2.22486787       0.00000000
Si      -1.91718639      -0.76308876       1.16004256       0.00000000
Si       0.78411915       1.95121620       1.20586343       0.00000000
Si       1.81286523      -1.72840158      -0.22853501       0.00000000
Si      -0.49125753      -2.01168468       2.63547464       0.00000000
Si       2.24858315       0.72213570       2.63331308       0.00000000
Si      -0.53318799       2.59367751      -2.57658709       0.00000000
Si       0.82406223      -3.41099568       1.19244175       0.00000000
Si       3.55194069      -0.72418824       1.20908851       0.00000000
Si      -3.30071238      -1.96608897      -0.54379089       0.00000000
