10
Lattice="16.28999089631971 0.0 0.0 0.0 16.28999089631971 0.0 0.0 0.0 34.529650657227435" Properties=species:S:1:pos:R:3:initial_magmoms:R:1 pbc="T T T"
Si       1.35638685       1.35651717      -1.35777568       0.00000000
Si      -1.35749457       1.35812988       1.35767209       0.00000000
Si       1.35785295      -1.35808101       1.35774115       0.00000000
Si      -1.35839052      -1.35907470      -1.35722321       0.00000000
Si       0.00193851      -2.71278999      -2.71586213       0.00000000
Si      -0.00149868      -2.71489140       2.71451547       0.00000000
Si      -2.71503801      -2.71480995       0.00055247       0.00000000
Si      -2.71511946      -0.00117288       2.71475718       0.00000000
Si       2.71502172      -2.71489140       0.00013812       0.00000000
Si      -0.00180819       2.71601541       2.71423924       0.00000000
