10
Lattice="16.28999089631971 0.0 0.0 0.0 16.28999089631971 0.0 0.0 0.0 34.529650657227435" Properties=species:S:1:pos:R:3:initial_magmoms:R:1 pbc="T T T"
Si       1.35773309       1.35658233      -1.35801739       0.00000000
Si      -1.35798327      -1.35962856      -1.35760303       0.00000000
Si       1.35999903      -1.36230012       1.35894969       0.00000000
Si      -1.35982404       1.35839052       1.36361120       0.00000000
Si       2.71342271       2.71233387      -0.00189913       0.00000000
Si      -0.00048870       2.71378368      -2.71530966       0.00000000
Si       2.71410852      -0.00110772      -2.71544777       0.00000000
Si       2.71398635      -2.71656927      -0.00044889       0.00000000
Si      -0.01011609      -2.70503595       2.72580668       0.00000000
Si      -2.71583622      -0.00154755      -2.71534419       0.00000000
