10
Lattice="16.28999089631971 0.0 0.0 0.0 16.28999089631971 0.0 0.0 0.0 34.529650657227435" Properties=species:S:1:pos:R:3:initial_magmoms:R:1 pbc="T T T"
Si       1.16857197      -0.52999515       1.95185865       0.00000000
Si       0.78620657       1.74089601      -1.47034241       0.00000000
Si      -2.32396398       0.27060948       0.58403484       0.00000000
Si       0.36713296      -2.15725212      -1.18737176       0.00000000
Si      -2.83032234       1.58990400      -1.27442106       0.00000000
Si      -1.08022248       3.14589222      -1.23889003       0.00000000
Si      -0.37774881      -2.02864257       2.91799882       0.00000000
Si       3.16862396      -1.45733598       1.13039781       0.00000000
Si       0.95576755      -1.59308055      -3.43376850       0.00000000
Si       2.61740294      -2.86371684      -0.65340494       0.00000000
