10
Lattice="16.28999089631971 0.0 0.0 0.0 16.28999089631971 0.0 0.0 0.0 34.529650657227435" Properties=species:S:1:pos:R:3:initial_magmoms:R:1 pbc="T T T"
Si      -1.35638685      -1.35651717       1.35777568       0.00000000
Si       1.35896067       1.35881406       1.35781021       0.00000000
Si       1.36050822      -1.35593073      -1.36195377       0.00000000
Si      -1.35676152       1.36298430      -1.36109053       0.00000000
Si      -2.71453302       2.71448415       0.00037983       0.00000000
Si      -2.71388142       0.00161271       2.71544777       0.00000000
Si       0.00146610      -2.71459818       2.71551683       0.00000000
Si      -2.71477737      -2.71559187       0.00055247       0.00000000
Si       2.71580904       2.71471221       0.00165742       0.00000000
Si       0.00079821       2.71671588       2.71506795       0.00000000
