10
Lattice="16.28999089631971 0.0 0.0 0.0 16.28999089631971 0.0 0.0 0.0 34.529650657227435" Properties=species:S:1:pos:R:3:initial_magmoms:R:1 pbc="T T T"
Si      -1.75009986      -1.55598822      -0.03553103       0.00000000
Si       1.86642905      -1.40499621      -0.23145238       0.00000000
Si      -0.60914826       1.21673268       1.92409680       0.00000000
Si      -0.04131144       1.90623951      -1.38795461       0.00000000
Si       1.08022248      -3.14589222       1.23889003       0.00000000
Si       3.51420002       0.03603348       0.73544744       0.00000000
Si       0.90505611       3.02014971       1.73849982       0.00000000
Si      -1.24374150      -2.87528274       1.82292487       0.00000000
Si      -1.71848097       1.52200728      -2.95836400       0.00000000
Si      -1.60129071      -3.00938202      -1.85227509       0.00000000
