10
Lattice="16.28999089631971 0.0 0.0 0.0 16.28999089631971 0.0 0.0 0.0 34.529650657227435" Properties=species:S:1:pos:R:3:initial_magmoms:R:1 pbc="T T T"
Si      -0.50635836       1.31929452      -1.85845590       0.00000000
Si      -1.39559688      -1.90185750       0.20296540       0.00000000
Si       2.32396398      -0.27060948      -0.58403484       0.00000000
Si      -0.79421895       1.10930013       1.99968225       0.00000000
Si      -0.42313275      -2.72233593       2.19629419       0.00000000
Si      -3.44566080      -0.72337374       0.59111342       0.00000000
Si       1.24374150       2.87528274      -1.82292487       0.00000000
Si      -1.57169178      -0.94433130       3.18415351       0.00000000
Si      -0.35754921      -0.13409928      -3.67519995       0.00000000
Si       1.94621517      -2.29925205       2.33396398       0.00000000
