10
Lattice="16.28999089631971 0.0 0.0 0.0 16.28999089631971 0.0 0.0 0.0 34.529650657227435" Properties=species:S:1:pos:R:3:initial_magmoms:R:1 pbc="T T T"
Si       1.47523869      -0.12264741       1.81498304       0.00000000
Si      -1.64945047      -1.66987161       0.41887943       0.00000000
Si       0.90194472      -0.81695979      -2.06553033       0.00000000
Si      -0.97404589       2.27247129      -0.27174850       0.00000000
Si       1.64045187      -2.40070617       1.25908989       0.00000000
Si      -2.31475718       1.15233831      -1.89447034       0.00000000
Si      -0.94556120      -0.11183085      -3.40638647       0.00000000
Si      -3.47727059      -0.42984423      -0.50699914       0.00000000
Si       2.84268645       0.91522107      -2.17561091       0.00000000
Si      -1.78872019      -2.35949247       2.69662910       0.00000000
