10
Lattice="16.28999089631971 0.0 0.0 0.0 16.28999089631971 0.0 0.0 0.0 34.529650657227435" Properties=species:S:1:pos:R:3:initial_magmoms:R:1 pbc="T T T"
Si      -1.21958343       1.48480304       1.36468162       0.00000000
Si       1.06937334       1.75707102      -1.18720153       0.00000000
Si       1.52085069      -1.22360706       1.36901854       0.00000000
Si      -1.22906421      -1.27503459      -1.67652049       0.00000000
Si      -2.58501123      -2.55515166      -0.07779189       0.00000000
Si      -2.55428829       0.13398525       2.73914894       0.00000000
Si       0.16636977      -2.58602121       2.73269189       0.00000000
Si      -2.56214007       2.78265195      -0.19216107       0.00000000
Si       2.91934297      -2.49334740      -0.04674972       0.00000000
Si       2.75954948       0.50787333      -2.76282390       0.00000000
