10
Lattice="16.28999089631971 0.0 0.0 0.0 16.28999089631971 0.0 0.0 0.0 34.529650657227435" Properties=species:S:1:pos:R:3:initial_magmoms:R:1 pbc="T T T"
Si       0.87812874       1.84536378      -1.24641750       0.00000000
Si      -1.34379468       0.83987982       1.83214429       0.00000000
Si      -1.87620075      -0.97026498      -1.28647191       0.00000000
Si       1.68738336      -1.83469383       0.17755156       0.00000000
Si      -0.45216153      -2.17502451      -2.71265087       0.00000000
Si       2.26784493       0.55276857      -2.69355596       0.00000000
Si       0.11930796       0.54664353       3.71622120       0.00000000
Si       3.45593979      -0.95540850      -1.26416575       0.00000000
Si       0.87477300      -3.50432109      -1.27279816       0.00000000
Si      -2.66659155      -2.83232601       0.03970912       0.00000000
