10
Lattice="16.28999089631971 0.0 0.0 0.0 16.28999089631971 0.0 0.0 0.0 34.529650657227435" Properties=species:S:1:pos:R:3:initial_magmoms:R:1 pbc="T T T"
Si      -1.67716953      -0.38423223      -1.57040939       0.00000000
Si       0.04131144      -1.90623951       1.38795461       0.00000000
Si       1.96831648       0.35574102      -1.25028482       0.00000000
Si      -0.13165578       2.06118999       1.21730898       0.00000000
Si      -0.56783682      -0.68950683       3.31205141       0.00000000
Si       0.94636755       1.11391020       3.12645444       0.00000000
Si      -2.16117801       1.89667728      -2.09367201       0.00000000
Si       3.24614807       1.59353667       0.30638176       0.00000000
Si       2.97469151      -1.74353499      -1.51799335       0.00000000
Si       0.50484339       3.76448609      -0.32848075       0.00000000
