10
Lattice="16.28999089631971 0.0 0.0 0.0 16.28999089631971 0.0 0.0 0.0 34.529650657227435" Properties=species:S:1:pos:R:3:initial_magmoms:R:1 pbc="T T T"
Si       0.40560471       0.71144687       2.24152805       0.00000000
Si       0.20401596       2.09999996      -1.20760615       0.00000000
Si       1.77742863      -1.53525105      -0.69622174       0.00000000
Si      -2.26041669      -1.15636194       0.47633680       0.00000000
Si       1.86907780      -2.69729820       1.31972399       0.00000000
Si      -0.76258377       2.75749694       2.36331420       0.00000000
Si      -0.93462246       3.74877602       0.19561058       0.00000000
Si      -0.23089446      -0.99184923       3.78731779       0.00000000
Si      -0.96073533       2.10710240      -3.24934553       0.00000000
Si      -0.09923868      -3.05303922       2.57000881       0.00000000
