10
Lattice="16.28999089631971 0.0 0.0 0.0 16.28999089631971 0.0 0.0 0.0 34.529650657227435" Properties=species:S:1:pos:R:3:initial_magmoms:R:1 pbc="T T T"
Si      -0.57000339       2.26800783       0.00977190       0.00000000
Si       1.94238280      -0.02217069      -1.34714054       0.00000000
Si       1.03609287      -1.14499152       1.79533566       0.00000000
Si      -1.60832799      -1.17962406      -1.31368129       0.00000000
Si      -0.80537760       2.20397184      -2.40595834       0.00000000
Si       1.53798437      -3.04282539       0.35631166       0.00000000
Si       1.80507276      -2.30995458      -1.87779251       0.00000000
Si      -2.56049478      -2.56059252       0.35755473       0.00000000
Si       1.32015789       1.40041872      -3.08957675       0.00000000
Si      -2.41691472       0.46405323      -2.83878776       0.00000000
