10
Lattice="16.28999089631971 0.0 0.0 0.0 16.28999089631971 0.0 0.0 0.0 34.529650657227435" Properties=species:S:1:pos:R:3:initial_magmoms:R:1 pbc="T T T"
Si       1.35738229       1.35711990       1.35698150       0.00000000
Si      -1.35741855       1.35725022      -1.35777568       0.00000000
Si       1.35780746      -1.35792463      -1.35794833       0.00000000
Si      -1.35764661      -1.35887270       1.35791380       0.00000000
Si       0.00038143       2.71254564      -2.71506795       0.00000000
Si       0.00339498       2.71138905       2.71638008       0.00000000
Si       2.71407865       0.00065160      -2.71399753       0.00000000
Si      -2.71458732       2.71406061      -0.00017265       0.00000000
Si      -2.71056369      -0.00014661       2.71938416       0.00000000
Si       2.71486057      -2.71535124      -0.00024171       0.00000000
