10
Lattice="16.28999089631971 0.0 0.0 0.0 16.28999089631971 0.0 0.0 0.0 34.529650657227435" Properties=species:S:1:pos:R:3:initial_magmoms:R:1 pbc="T T T"
Si      -1.35672568       1.35812988      -1.35687791       0.00000000
Si       1.35834165      -1.35674523      -1.35698150       0.00000000
Si       1.35718506       1.35723393       1.35774115       0.00000000
Si      -1.35740660      -1.35829278       1.35646355       0.00000000
Si      -0.00781920      -2.70896184       2.71154592       0.00000000
Si      -2.71239359       0.00250866       2.71458453       0.00000000
Si      -2.71309623      -2.71404432       0.00034530       0.00000000
Si      -2.71446965      -0.00094482      -2.71309976       0.00000000
Si       0.00039096      -2.71422351      -2.71410112       0.00000000
Si      -0.00120546       2.71430496      -2.71427377       0.00000000
