10
Lattice="16.28999089631971 0.0 0.0 0.0 16.28999089631971 0.0 0.0 0.0 34.529650657227435" Properties=species:S:1:pos:R:3:initial_magmoms:R:1 pbc="T T T"
Si       1.34958740      -1.35066906       1.35508237       0.00000000
Si      -1.35568962      -1.35575154      -1.35611826       0.00000000
Si       1.35740660       1.35829278      -1.35646355       0.00000000
Si      -1.35498699       1.36080144       1.35812098       0.00000000
Si      -2.71342271      -2.71233387       0.00189913       0.00000000
Si       0.00068581      -2.71344159      -2.71354864       0.00000000
Si      -2.71391141       0.00144981      -2.71341052       0.00000000
Si       2.71574825       0.00154755      -2.71344505       0.00000000
Si      -2.71493768       2.71427238       0.00172648       0.00000000
Si       0.00068092       2.71642266      -2.71334146       0.00000000
