10
Lattice="16.28999089631971 0.0 0.0 0.0 16.28999089631971 0.0 0.0 0.0 34.529650657227435" Properties=species:S:1:pos:R:3:initial_magmoms:R:1 pbc="T T T"
Si      -1.34958740       1.35066906      -1.35508237       0.00000000
Si      -1.33912759      -1.35338949       1.37659435       0.00000000
Si       1.36575360      -1.36462959      -1.35332135       0.00000000
Si       1.36536264       1.35759231       1.36885971       0.00000000
Si       0.50837832      -2.05851843       2.71745050       0.00000000
Si       2.44912005      -0.32633757       2.60736991       0.00000000
Si      -0.13942611       2.60568324       2.75412101       0.00000000
Si      -2.70457439       2.71147050       0.00303861       0.00000000
Si      -2.70527703      -0.00508248      -2.71120063       0.00000000
Si       0.00781920       2.70896184      -2.71154592       0.00000000
