10
Lattice="16.28999089631971 0.0 0.0 0.0 16.28999089631971 0.0 0.0 0.0 34.529650657227435" Properties=species:S:1:pos:R:3:initial_magmoms:R:1 pbc="T T T"
Si      -0.98836710      -1.84612941       1.36333496       0.00000000
Si       1.44611543       1.40804244       1.47793893       0.00000000
Si      -2.03939790       1.48196646      -0.47419596       0.00000000
Si       1.14922855      -0.70547103      -2.37467446       0.00000000
Si      -2.25875904      -2.45408850      -0.61756315       0.00000000
Si      -3.39953145      -0.41459679      -1.00118778       0.00000000
Si       3.16073567       2.26675350      -0.46304287       0.00000000
Si       0.43974041       3.50731845       1.74564746       0.00000000
Si       0.54872539      -3.49363485       2.18900843       0.00000000
Si       0.37916441      -0.15965829       4.15243452       0.00000000
