10
Lattice="16.28999089631971 0.0 0.0 0.0 16.28999089631971 0.0 0.0 0.0 34.529650657227435" Properties=species:S:1:pos:R:3:initial_magmoms:R:1 pbc="T T T"
Si      -1.00637502       2.09927601       0.26770853       0.00000000
Si       1.77660369      -0.24303051       1.62051194       0.00000000
Si      -1.44611543      -1.40804244      -1.47793893       0.00000000
Si       1.71462024       0.85871106      -1.94098181       0.00000000
Si      -1.06695102      -1.56770073       2.67449559       0.00000000
Si       0.58081995      -0.12667104       3.64139540       0.00000000
Si      -2.97469151       1.74353499       1.51799335       0.00000000
Si       2.63640618      -2.42690049       1.29962772       0.00000000
Si       0.27145656       3.33707166       1.82437511       0.00000000
Si      -1.09802419       3.26132316      -1.74823719       0.00000000
