10
Lattice="16.28999089631971 0.0 0.0 0.0 16.28999089631971 0.0 0.0 0.0 34.529650657227435" Properties=species:S:1:pos:R:3:initial_magmoms:R:1 pbc="T T T"
Si       1.88010058      -0.43549686       1.35604920       0.00000000
Si      -1.30539982      -1.71448992      -1.03837623       0.00000000
Si       1.07270302      -0.15519483      -2.19705384       0.00000000
Si      -0.77394197       2.31780636      -0.18200589       0.00000000
Si      -2.95248172       1.55530404       0.18953336       0.00000000
Si      -3.15205051      -0.31382685      -1.17169529       0.00000000
Si       2.87447476       1.76404410       1.19793784       0.00000000
Si       0.92824330      -0.48154869       3.44840908       0.00000000
Si       2.93733787      -1.56460563      -1.68715420       0.00000000
Si       1.57461421       2.05408755      -2.73903154       0.00000000
