10
Lattice="16.28999089631971 0.0 0.0 0.0 16.28999089631971 0.0 0.0 0.0 34.529650657227435" Properties=species:S:1:pos:R:3:initial_magmoms:R:1 pbc="T T T"
Si      -1.35552022      -1.35617508       1.35739586       0.00000000
Si       1.35936792       1.35876519       1.35732680       0.00000000
Si      -1.35695211       1.36205577      -1.35777568       0.00000000
Si       1.36024758      -1.35736425      -1.36274795       0.00000000
Si      -2.71202075       2.71549014       0.00041436       0.00000000
Si      -2.71279147       0.00105885       2.71479171       0.00000000
Si      -2.71326419      -2.71524978       0.00117401       0.00000000
Si       0.00120546      -2.71430496       2.71427377       0.00000000
Si       0.00184077       2.71601888       2.71496436       0.00000000
Si       2.71681362       0.00182448       2.71506795       0.00000000
