10
Lattice="16.28999089631971 0.0 0.0 0.0 16.28999089631971 0.0 0.0 0.0 34.529650657227435" Properties=species:S:1:pos:R:3:initial_magmoms:R:1 pbc="T T T"
Si      -1.35371433       1.35657561       1.35781021       0.00000000
Si      -1.35543537      -1.35720135      -1.35653261       0.00000000
Si       1.35919687       1.35775868      -1.35635997       0.00000000
Si       1.36196618      -1.35597960       1.36292060       0.00000000
Si      -2.71285419       0.00021177      -2.71382488       0.00000000
Si      -2.71331031       2.71423721       0.00179554       0.00000000
Si       0.00183588      -2.71443528      -2.71392847       0.00000000
Si       0.00214376       2.71518529      -2.71406659       0.00000000
Si      -2.71378272      -2.71658556       0.00113948       0.00000000
Si       2.71672403       0.00050499      -2.71399753       0.00000000
