10
Lattice="16.28999089631971 0.0 0.0 0.0 16.28999089631971 0.0 0.0 0.0 34.529650657227435" Properties=species:S:1:pos:R:3:initial_magmoms:R:1 pbc="T T T"
Si       1.36161594       1.36569563       1.39651797       0.00000000
Si      -1.30496584       1.37964801      -1.44617164       0.00000000
Si       1.42980588      -1.32325299      -1.43322301       0.00000000
Si      -0.95575059      -1.77683175       1.37659435       0.00000000
Si       2.69952993      -0.29278017       2.44342303       0.00000000
Si      -1.77093314       2.84481134       1.93152068       0.00000000
Si      -2.64703445       0.03086283      -2.82110856       0.00000000
Si      -2.85833204       2.60389853      -0.13967251       0.00000000
Si       2.79380016       2.69683298      -0.03812076       0.00000000
Si       0.06864606      -2.68169238      -2.81599817       0.00000000
