10
Lattice="16.28999089631971 0.0 0.0 0.0 16.28999089631971 0.0 0.0 0.0 34.40785480372833" Properties=species:S:1:pos:R:3:initial_magmoms:R:1 pbc="T T T"
Si      -1.33897284      -1.37458207       1.37916737       0.00000000
Si       1.36956546       1.35104837       1.37627711       0.00000000
Si       1.33669224      -1.33758748      -1.45167853       0.00000000
Si      -1.50121309       1.35089688      -1.41889126       0.00000000
Si      -2.70949031       2.70115054       0.04233201       0.00000000
Si      -2.69324918      -2.72425744      -0.00941399       0.00000000
Si       2.72005533       2.70787831      -0.01848047       0.00000000
Si      -2.70209342      -0.01151985       2.74006761       0.00000000
Si       0.01179396       2.70300760       2.74044609       0.00000000
Si       2.72367171      -2.72298682       0.02102665       0.00000000
