10
Lattice="16.28999089631971 0.0 0.0 0.0 16.28999089631971 0.0 0.0 0.0 34.40785480372833" Properties=species:S:1:pos:R:3:initial_magmoms:R:1 pbc="T T T"
Si      -0.09014886      -1.12366791       2.08442901       0.00000000
Si      -1.19162979      -1.08216099      -1.78129564       0.00000000
Si       2.33818515       0.02218698      -0.58761767       0.00000000
Si      -0.88495425       2.20665969       0.42418027       0.00000000
Si      -2.30302481      -1.67894514       2.35212227       0.00000000
Si       3.33889614       0.70216416       1.42833967       0.00000000
Si      -0.03854214      -3.13101945      -2.05821021       0.00000000
Si       0.98789076       3.61157445       0.47011478       0.00000000
Si      -0.96355350       0.30828825      -3.72014493       0.00000000
Si       2.65287537       1.64711448      -2.27009390       0.00000000
