10
Lattice="16.28999089631971 0.0 0.0 0.0 16.28999089631971 0.0 0.0 0.0 34.40785480372833" Properties=species:S:1:pos:R:3:initial_magmoms:R:1 pbc="T T T"
Si       0.46680624      -0.43414479       2.29889329       0.00000000
Si      -1.43226567       1.93746744       0.23858420       0.00000000
Si       1.90609290       1.31033502      -0.99063710       0.00000000
Si      -1.57796343      -1.59194025      -1.17334291       0.00000000
Si      -3.03616278       0.16285113       0.83105338       0.00000000
Si       0.89583597       0.98108154      -3.20695149       0.00000000
Si      -1.34265438       0.75106674       3.13252726       0.00000000
Si      -1.06917786       2.92698720       2.32239387       0.00000000
Si      -0.45092349      -2.47614516       2.97848321       0.00000000
Si      -3.64136886      -0.43636023      -1.45703583       0.00000000
