10
Lattice="16.28999089631971 0.0 0.0 0.0 16.28999089631971 0.0 0.0 0.0 34.40785480372833" Properties=species:S:1:pos:R:3:initial_magmoms:R:1 pbc="T T T"
Si      -0.15441291       2.02724652       1.24890260       0.00000000
Si       0.93061512      -1.06145249       1.92543022       0.00000000
Si      -2.06345430      -0.99668671      -0.73140818       0.00000000
Si       1.14635988       0.60149685      -2.03729022       0.00000000
Si       2.99442780       0.12521471       1.92893983       0.00000000
Si       0.08187354       2.65605681      -2.57869812       0.00000000
Si       0.29209599       3.69732990      -0.40535916       0.00000000
Si      -3.37950711      -1.24120256       1.20788842       0.00000000
Si       1.85355765       1.99152255       2.69203766       0.00000000
Si      -2.28916854       2.06194422       2.34093971       0.00000000
