10
Lattice="16.28999089631971 0.0 0.0 0.0 16.28999089631971 0.0 0.0 0.0 34.40785480372833" Properties=species:S:1:pos:R:3:initial_magmoms:R:1 pbc="T T T"
Si      -0.46933119       2.21636853       0.47854471       0.00000000
Si       0.40206978      -0.99455337       2.06075639       0.00000000
Si      -1.94782788      -1.19320992      -0.57385452       0.00000000
Si       2.13475563      -0.03469770      -1.09203711       0.00000000
Si       1.57620411       2.56000608       1.65113065       0.00000000
Si      -0.85512726       3.06165663      -1.67029584       0.00000000
Si       1.25664318       0.82585413       3.31915557       0.00000000
Si      -1.83567123      -1.28806659       2.87267900       0.00000000
Si      -1.09033857      -3.30314678      -1.13305129       0.00000000
Si       1.74996954      -2.88846949       1.52031191       0.00000000
