10
Lattice="16.28999089631971 0.0 0.0 0.0 16.28999089631971 0.0 0.0 0.0 34.40785480372833" Properties=species:S:1:pos:R:3:initial_magmoms:R:1 pbc="T T T"
Si       1.48450770      -1.21140585      -1.38030627       0.00000000
Si      -1.25457435       1.49483556      -1.35642721       0.00000000
Si       1.27148337       1.41485166       1.42510533       0.00000000
Si      -0.94556934      -1.98192285       1.15569167       0.00000000
Si      -0.73692702      -0.81425565       3.15582139       0.00000000
Si       1.88633313      -0.68618367       2.77585524       0.00000000
Si       0.12124647      -2.57139279      -2.73835065       0.00000000
Si      -2.59540425       0.14257008      -2.73762809       0.00000000
Si       2.64740193       2.74059702       0.00540204       0.00000000
Si       2.83309164      -2.54785374       0.04448938       0.00000000
