10
Lattice="16.28999089631971 0.0 0.0 0.0 16.28999089631971 0.0 0.0 0.0 34.40785480372833" Properties=species:S:1:pos:R:3:initial_magmoms:R:1 pbc="T T T"
Si      -0.04175127       2.10219192       0.99383703       0.00000000
Si      -2.04553530      -0.34363755      -1.17258594       0.00000000
Si      -0.31956093      -1.73415195       1.66802492       0.00000000
Si       2.15241399       0.60497802      -0.97818145       0.00000000
Si      -1.57620411      -2.56000608      -1.65113065       0.00000000
Si       3.38375880       0.88021386       1.00618946       0.00000000
Si      -0.57886515       3.53929572      -0.88132329       0.00000000
Si       1.95124878       2.17096830       2.32156808       0.00000000
Si      -1.17413433      -3.55455945       0.40962574       0.00000000
Si       0.55855152      -2.59470378      -2.74316776       0.00000000
