10
Lattice="16.28999089631971 0.0 0.0 0.0 16.28999089631971 0.0 0.0 0.0 34.40785480372833" Properties=species:S:1:pos:R:3:initial_magmoms:R:1 pbc="T T T"
Si      -0.59952087      -2.26764945       0.73187754       0.00000000
Si      -1.82689092       1.60226811       0.43626298       0.00000000
Si       1.98581616       0.73912617       1.28075883       0.00000000
Si      -0.40281912       0.41502033      -2.50823079       0.00000000
Si       0.79042338      -3.14405145      -1.12702991       0.00000000
Si       0.59075685       1.94088834       2.81739040       0.00000000
Si      -2.12428116      -0.81752994       2.83679644       0.00000000
Si       0.31227930      -1.81164348      -3.17853059       0.00000000
Si      -0.70556877       3.38178771       1.51595729       0.00000000
Si      -3.57028093       0.43961823       1.57286104       0.00000000
