10
Lattice="16.28999089631971 0.0 0.0 0.0 16.28999089631971 0.0 0.0 0.0 34.40785480372833" Properties=species:S:1:pos:R:3:initial_magmoms:R:1 pbc="T T T"
Si      -0.66538134      -2.03476761      -0.87103533       0.00000000
Si       1.96880940       0.17671392       1.24491129       0.00000000
Si      -2.00386548       0.38406933       1.20448204       0.00000000
Si      -0.02277342       1.77246603      -1.62157429       0.00000000
Si       1.19910690      -2.38244508      -2.21607353       0.00000000
Si       3.48811254       0.02686221      -0.72270299       0.00000000
Si       2.13661269       2.59025661       1.28795554       0.00000000
Si      -3.61206315       0.85561596      -0.66414078       0.00000000
Si      -2.26791009       2.16477810      -2.23427530       0.00000000
Si      -1.26827424       1.24778142       3.43183417       0.00000000
