10
Lattice="16.28999089631971 0.0 0.0 0.0 16.28999089631971 0.0 0.0 0.0 34.40785480372833" Properties=species:S:1:pos:R:3:initial_magmoms:R:1 pbc="T T T"
Si       1.11263958       1.63049868      -1.17059028       0.00000000
Si      -0.68661047      -1.44627507      -1.67628281       0.00000000
Si       1.55330037      -1.29650481       1.13601037       0.00000000
Si      -1.78227261       1.01121804       1.25464872       0.00000000
Si      -1.99520197      -0.85856445       2.69193443       0.00000000
Si       0.11137473      -1.93478611       2.88554754       0.00000000
Si      -0.71876367       2.99890755      -1.75868967       0.00000000
Si      -2.79227609      -0.56786940      -2.18311079       0.00000000
Si      -0.88467732       2.89911501       2.35659529       0.00000000
Si       0.65474397      -1.21523400      -3.61592348       0.00000000
