10
Lattice="16.28999089631971 0.0 0.0 0.0 16.28999089631971 0.0 0.0 0.0 34.40785480372833" Properties=species:S:1:pos:R:3:initial_magmoms:R:1 pbc="T T T"
Si      -1.87284501      -1.40491476      -0.04593451       0.00000000
Si      -0.85748931       2.10993686       0.55919677       0.00000000
Si       1.31605281       0.24451585      -1.93929660       0.00000000
Si       1.11866688      -1.02741030       1.86046816       0.00000000
Si      -2.29941495       1.47165556       2.30873394       0.00000000
Si      -2.76468993      -0.84864384       2.13191188       0.00000000
Si      -3.17220220      -0.34489188      -1.69011477       0.00000000
Si       1.09033857       3.30314678       1.13305129       0.00000000
Si      -0.83297286      -1.48476834       3.28502296       0.00000000
Si       1.66498461      -1.96445997      -2.74020868       0.00000000
