10
Lattice="16.28999089631971 0.0 0.0 0.0 16.28999089631971 0.0 0.0 0.0 34.40785480372833" Properties=species:S:1:pos:R:3:initial_magmoms:R:1 pbc="T T T"
Si      -1.33247313      -1.36629143      -1.36236945       0.00000000
Si      -1.35490446       1.35560982       1.35677129       0.00000000
Si       1.35998694      -1.35620806       1.35800997       0.00000000
Si       1.34402274       1.36737120      -1.37749859       0.00000000
Si       2.65875606      -0.07664934      -2.68990437       0.00000000
Si      -2.67501348      -0.05398343      -2.71485008       0.00000000
Si      -2.71397916       0.00001466       2.71464363       0.00000000
Si       0.00148239      -2.71523579       2.71471245       0.00000000
Si       0.00118917       2.71520580       2.71495330       0.00000000
Si      -2.71580364      -2.71479596      -0.00185803       0.00000000
