10
Lattice="16.28999089631971 0.0 0.0 0.0 16.28999089631971 0.0 0.0 0.0 34.40785480372833" Properties=species:S:1:pos:R:3:initial_magmoms:R:1 pbc="T T T"
Si       1.35490446      -1.35560982      -1.35677129       0.00000000
Si      -1.35907470      -1.35559516       1.35787234       0.00000000
Si       1.35609363       1.35959598       1.35818201       0.00000000
Si      -1.36238157       1.36391283      -1.36358405       0.00000000
Si       2.71489140      -2.71181787       0.00123868       0.00000000
Si      -0.00097740      -2.71358828       2.71584791       0.00000000
Si      -2.71464705      -2.71495730       0.00006882       0.00000000
Si       2.71430496       0.00079821       2.71608876       0.00000000
Si      -2.71630863       0.00042354       2.71443718       0.00000000
Si       2.71445157       2.71652040      -0.00003441       0.00000000
