10
Lattice="16.28999089631971 0.0 0.0 0.0 16.28999089631971 0.0 0.0 0.0 34.40785480372833" Properties=species:S:1:pos:R:3:initial_magmoms:R:1 pbc="T T T"
Si      -1.35891180      -1.35556420       1.35656484       0.00000000
Si       1.35687555      -1.35659047      -1.35763149       0.00000000
Si       1.35638685       1.35899325       1.35639280       0.00000000
Si      -1.35821133       1.35879777      -1.35790675       0.00000000
Si       0.00058644      -2.71261608      -2.71485008       0.00000000
Si       2.71451673      -2.71370592      -0.00086020       0.00000000
Si      -2.71528236      -2.71438649      -0.00024086       0.00000000
Si      -0.00241092      -2.71292856       2.71674251       0.00000000
Si       2.71479366      -0.00026064      -2.71540060       0.00000000
Si      -2.71430496      -0.00079821      -2.71608876       0.00000000
