10
Lattice="16.28999089631971 0.0 0.0 0.0 16.28999089631971 0.0 0.0 0.0 34.40785480372833" Properties=species:S:1:pos:R:3:initial_magmoms:R:1 pbc="T T T"
Si      -1.32729291      -1.34975682       1.37786332       0.00000000
Si       1.35769005      -1.35251797      -1.35973037       0.00000000
Si      -1.35534429       1.36081773      -1.35976477       0.00000000
Si       1.35602847       1.35923760       1.38574272       0.00000000
Si      -2.62541043       0.05088996       2.74832894       0.00000000
Si       2.71419093      -2.70988233       0.00044730       0.00000000
Si       0.00131949      -2.71134026      -2.71653606       0.00000000
Si      -2.71529865      -2.71307277       0.00048171       0.00000000
Si      -2.71401174       0.00267156      -2.71794679       0.00000000
Si       2.71660185       0.00304623      -2.71629521       0.00000000
