10
Lattice="16.28999089631971 0.0 0.0 0.0 16.28999089631971 0.0 0.0 0.0 34.40785480372833" Properties=species:S:1:pos:R:3:initial_magmoms:R:1 pbc="T T T"
Si       2.10054663       0.89998992       0.42018896       0.00000000
Si      -0.03487689      -2.33422668      -0.05278168       0.00000000
Si      -1.03081491       0.60123132       2.02978930       0.00000000
Si      -0.71692290       0.82331289      -2.09155144       0.00000000
Si      -3.15889164       0.95030973       1.18507600       0.00000000
Si       3.18956571       0.30667554      -1.59673180       0.00000000
Si       1.42949637       0.96456348      -3.15430744       0.00000000
Si       0.42288840      -2.86374942       2.18256027       0.00000000
Si       2.58173694       0.00294849       2.56916714       0.00000000
Si      -1.51614288       2.96771220      -1.52709027       0.00000000
