10
Lattice="16.28999089631971 0.0 0.0 0.0 16.28999089631971 0.0 0.0 0.0 34.40785480372833" Properties=species:S:1:pos:R:3:initial_magmoms:R:1 pbc="T T T"
Si       1.35956340       1.76073723      -0.66176664       0.00000000
Si      -1.43251002       1.29075444       1.31537862       0.00000000
Si      -1.23134481      -0.27523584      -1.98437091       0.00000000
Si       1.17294516      -1.94391828       0.72638463       0.00000000
Si       0.35670213      -1.65716541      -3.05049889       0.00000000
Si      -3.42551007       1.22197806      -0.01235243       0.00000000
Si      -3.38375880      -0.88021386      -1.00618946       0.00000000
Si       2.76742665       2.00780766       1.26923766       0.00000000
Si      -0.09259236       3.32938278      -1.62498067       0.00000000
Si       3.32651574      -1.63009143      -0.25912570       0.00000000
