10
Lattice="16.28999089631971 0.0 0.0 0.0 16.28999089631971 0.0 0.0 0.0 34.40785480372833" Properties=species:S:1:pos:R:3:initial_magmoms:R:1 pbc="T T T"
Si       1.35913986       1.35327546       1.37463930       0.00000000
Si      -1.35451350      -1.36679616       1.38011015       0.00000000
Si       1.41573132      -1.19021256      -1.50583996       0.00000000
Si      -1.41307605       1.35449721      -1.41820311       0.00000000
Si      -2.68666083      -2.70664866       0.01255887       0.00000000
Si       2.71902906      -2.71029762      -0.01468184       0.00000000
Si      -2.71728603       2.71314837       0.01711792       0.00000000
Si       2.72187981       2.71542897      -0.00970302       0.00000000
Si       0.00392589       2.71081890       2.73595243       0.00000000
Si      -2.71072116      -0.00452862       2.73684703       0.00000000
