10
Lattice="16.28999089631971 0.0 0.0 0.0 16.28999089631971 0.0 0.0 0.0 34.40785480372833" Properties=species:S:1:pos:R:3:initial_magmoms:R:1 pbc="T T T"
Si      -1.35682668       1.35728280      -1.35694333       0.00000000
Si       1.35762489      -1.35710361      -1.35739063       0.00000000
Si      -1.35788553      -1.35685926       1.35773471       0.00000000
Si       1.35830907       1.35739683       1.35756267       0.00000000
Si      -2.71389771       0.00076563       2.71054909       0.00000000
Si      -2.71423980       0.00171045      -2.71419633       0.00000000
Si      -2.71456560      -2.71420722      -0.00020645       0.00000000
Si       2.71474479      -0.00070047      -2.71436837       0.00000000
Si       0.00008145       2.71471221      -2.71478126       0.00000000
Si       2.71567332      -2.71415835       0.00041289       0.00000000
