10
Lattice="16.28999089631971 0.0 0.0 0.0 16.28999089631971 0.0 0.0 0.0 34.40785480372833" Properties=species:S:1:pos:R:3:initial_magmoms:R:1 pbc="T T T"
Si      -1.35713619       1.35746199      -1.35697774       0.00000000
Si      -1.35549090      -1.35982404       1.35763149       0.00000000
Si       1.35806472      -1.35796698      -1.35711537       0.00000000
Si       1.35848826       1.35755973       1.35756267       0.00000000
Si       0.00099369      -2.71448415       2.71037705       0.00000000
Si       0.00065160      -2.71353933      -2.71436837       0.00000000
Si      -2.71409319       0.00109143      -2.71433396       0.00000000
Si      -2.71467963       2.71461447       0.00010322       0.00000000
Si      -2.71458189      -2.71480995      -0.00006882       0.00000000
Si       2.71497285      -0.00053757      -2.71495330       0.00000000
