10
Lattice="16.28999089631971 0.0 0.0 0.0 16.28999089631971 0.0 0.0 0.0 34.40785480372833" Properties=species:S:1:pos:R:3:initial_magmoms:R:1 pbc="T T T"
Si      -0.59013783       1.38039831      -1.81174661       0.00000000
Si       0.79921998      -2.14439931      -0.56446117       0.00000000
Si      -2.06086419      -0.24283503       1.13497813       0.00000000
Si       1.89990270       1.22422608       0.75556251       0.00000000
Si      -0.55970811       3.41053956      -0.55231519       0.00000000
Si       0.95527818       3.28039875       1.30825619       0.00000000
Si       1.51614288      -2.96771220       1.52709027       0.00000000
Si      -3.40475661      -1.22245047      -0.60643878       0.00000000
Si       0.91189791       0.84603744      -3.52560281       0.00000000
Si      -1.64274876      -2.01740247       2.71216626       0.00000000
