10
Lattice="16.28999089631971 0.0 0.0 0.0 16.28999089631971 0.0 0.0 0.0 34.40785480372833" Properties=species:S:1:pos:R:3:initial_magmoms:R:1 pbc="T T T"
Si      -1.35694071      -1.35754344       1.35735622       0.00000000
Si      -1.35733167       1.35736425      -1.35749385       0.00000000
Si       1.35762489      -1.35777150      -1.35739063       0.00000000
Si       1.35920502       1.35782037       1.35732181       0.00000000
Si       2.71182888      -0.00068418       2.71564146       0.00000000
Si       2.71298547       0.00011403      -2.71491889       0.00000000
Si      -2.71469592       2.71462157       0.00041289       0.00000000
Si       2.71498914      -2.71518462       0.00013763       0.00000000
Si      -2.71487511       0.00133578      -2.71543501       0.00000000
Si       2.71510317       2.71530214      -0.00020645       0.00000000
