10
Lattice="16.28999089631971 0.0 0.0 0.0 16.28999089631971 0.0 0.0 0.0 34.40785480372833" Properties=species:S:1:pos:R:3:initial_magmoms:R:1 pbc="T T T"
Si      -1.35195597      -1.34881200      -1.38670614       0.00000000
Si       1.36216980       1.36545932      -1.38701581       0.00000000
Si       1.28633985      -1.39611816       1.48108694       0.00000000
Si      -1.15439085       1.42293999       1.59518345       0.00000000
Si       2.46084885       0.30392253       2.85440841       0.00000000
Si       2.71349046      -2.67876018      -0.02484249       0.00000000
Si      -2.67931404       2.72558483      -0.00959980       0.00000000
Si      -2.72582199      -2.68097562      -0.00946217       0.00000000
Si       2.73004110       2.71421766      -0.00760414       0.00000000
Si       0.00705357      -2.70816363      -2.74705585       0.00000000
