10
Lattice="16.28999089631971 0.0 0.0 0.0 16.28999089631971 0.0 0.0 0.0 34.40785480372833" Properties=species:S:1:pos:R:3:initial_magmoms:R:1 pbc="T T T"
Si       0.94462452      -2.05617267      -0.55269368       0.00000000
Si      -0.86491755      -0.03570768       2.19363960       0.00000000
Si      -1.51498629       0.13014081      -1.86057138       0.00000000
Si       2.07603018       1.36062225      -0.00626223       0.00000000
Si       1.70917938       1.28910915      -2.57646161       0.00000000
Si       2.04934716      -1.18954467      -2.49078600       0.00000000
Si      -1.11312828       2.27167929       2.37906363       0.00000000
Si      -0.55149795       1.99407519      -2.92208870       0.00000000
Si       2.70790299       0.52916436       2.29982230       0.00000000
Si      -0.95527818      -3.28039875      -1.30825619       0.00000000
