10
Lattice="16.28999089631971 0.0 0.0 0.0 16.28999089631971 0.0 0.0 0.0 34.40785480372833" Properties=species:S:1:pos:R:3:initial_magmoms:R:1 pbc="T T T"
Si      -0.24821073       2.30738697       0.18542403       0.00000000
Si       0.86491755       0.03570768      -2.19363960       0.00000000
Si      -2.20732758      -0.78177339       0.42610711       0.00000000
Si       1.81424988      -0.50468049       1.48060523       0.00000000
Si       3.57282054       0.56487204       0.10618270       0.00000000
Si       0.27925947      -2.37390912       2.81071041       0.00000000
Si      -1.88871147      -2.54956419       1.95092646       0.00000000
Si      -1.71802485       2.54231418       2.12124543       0.00000000
Si      -3.43966608       1.10022660       1.32835038       0.00000000
Si       1.80954207      -2.02046499      -2.74633328       0.00000000
