10
Lattice="16.28999089631971 0.0 0.0 0.0 16.28999089631971 0.0 0.0 0.0 34.40785480372833" Properties=species:S:1:pos:R:3:initial_magmoms:R:1 pbc="T T T"
Si      -2.31256098      -0.02951748      -0.12097809       0.00000000
Si       1.26822537       1.33985250      -1.54790703       0.00000000
Si       0.48928644      -1.60772526       1.75418223       0.00000000
Si       0.92981691      -2.16490842      -0.62047719       0.00000000
Si       2.53928520      -0.63337149      -1.51804099       0.00000000
Si       2.23850664       2.53827522       0.23483374       0.00000000
Si      -2.48036427      -2.44306017      -0.16402234       0.00000000
Si      -0.96106113      -2.59291188      -2.13163661       0.00000000
Si      -2.73500955       1.10495070       1.95791126       0.00000000
Si       1.95499548      -0.43999290       3.21059326       0.00000000
