10
Lattice="16.28999089631971 0.0 0.0 0.0 16.28999089631971 0.0 0.0 0.0 34.40785480372833" Properties=species:S:1:pos:R:3:initial_magmoms:R:1 pbc="T T T"
Si      -1.42876332       1.30205758      -1.32360210       0.00000000
Si      -1.36994013      -1.33636597       1.36647431       0.00000000
Si       1.34506530       1.37893987       1.36816030       0.00000000
Si       1.49547087      -1.20725143      -1.52920979       0.00000000
Si       0.22509522       2.35475974      -2.63137761       0.00000000
Si       2.06325882       0.72272328      -2.89973876       0.00000000
Si       2.70827766      -2.69149849      -0.02620160       0.00000000
Si      -2.72562651      -2.68794727      -0.02258189       0.00000000
Si      -0.01571985      -2.69377909       2.72358968       0.00000000
Si       2.69943341       0.02123910       2.72328001       0.00000000
