10
Lattice="16.28999089631971 0.0 0.0 0.0 16.28999089631971 0.0 0.0 0.0 34.40785480372833" Properties=species:S:1:pos:R:3:initial_magmoms:R:1 pbc="T T T"
Si      -1.35589815      -1.35748177       1.35752826       0.00000000
Si      -1.35764118       1.35711545      -1.35677129       0.00000000
Si       1.35741312      -1.35814966      -1.35725300       0.00000000
Si       1.35863487       1.36034087       1.35756267       0.00000000
Si      -0.00092853       2.70883521       2.71877257       0.00000000
Si      -2.71393029       0.00108984      -2.71398988       0.00000000
Si       0.00027693       2.71344528      -2.71454041       0.00000000
Si       2.71303556      -0.00016993      -2.71502212       0.00000000
Si      -2.71451673       2.71370592       0.00086020       0.00000000
Si       2.71043156       0.00012196       2.71853172       0.00000000
