10
Lattice="16.28999089631971 0.0 0.0 0.0 16.28999089631971 0.0 0.0 0.0 34.40785480372833" Properties=species:S:1:pos:R:3:initial_magmoms:R:1 pbc="T T T"
Si       1.35839052      -1.35591444      -1.35560142       0.00000000
Si      -1.35791811      -1.35632984       1.35776912       0.00000000
Si       1.35663120       1.35819504       1.35756267       0.00000000
Si      -1.35816246       1.36031274      -1.35907662       0.00000000
Si       2.70536175      -0.00094482      -2.69821731       0.00000000
Si       2.71275863      -2.71361521      -0.00048171       0.00000000
Si      -2.71420722      -2.71235544       0.00055053       0.00000000
Si      -0.00027693      -2.71344528       2.71454041       0.00000000
Si       2.71414873       2.71454931       0.00092901       0.00000000
Si       2.71444863       0.00086337       2.71426514       0.00000000
