10
Lattice="16.28999089631971 0.0 0.0 0.0 16.28999089631971 0.0 0.0 0.0 34.40785480372833" Properties=species:S:1:pos:R:3:initial_magmoms:R:1 pbc="T T T"
Si      -1.41405345       1.37259540      -1.41997855       0.00000000
Si       1.42531377      -1.69661069      -1.32453111       0.00000000
Si      -0.39438090       0.15410666       2.62249934       0.00000000
Si       1.84999733       2.59835274       0.44262289       0.00000000
Si      -1.24221024      -1.99758473       2.37428094       0.00000000
Si       0.44542303      -3.28745951       1.30395520       0.00000000
Si      -2.62531269      -0.49997987      -2.49099245       0.00000000
Si       0.38153202       2.55783951      -2.61055981       0.00000000
Si       2.63123315      -2.71559906       0.35261189       0.00000000
Si       3.35942873      -0.72002519       1.74024704       0.00000000
