10
Lattice="16.28999089631971 0.0 0.0 0.0 16.28999089631971 0.0 0.0 0.0 34.40785480372833" Properties=species:S:1:pos:R:3:initial_magmoms:R:1 pbc="T T T"
Si       1.04764248       1.30028898       1.57285274       0.00000000
Si      -2.23783875      -0.04641510      -0.68234255       0.00000000
Si       1.26936567      -0.71816909      -1.89102235       0.00000000
Si      -0.33521562      -1.77227285       1.59955325       0.00000000
Si       0.72699012      -3.24689252       0.15273655       0.00000000
Si       0.42153633      -2.86986047      -2.13924075       0.00000000
Si      -3.27435516       1.03986075       1.10098315       0.00000000
Si      -0.42425676       1.10200710       3.42774682       0.00000000
Si      -2.17012122       1.81459686      -2.33281945       0.00000000
Si      -2.90685276      -2.34110336       0.09479369       0.00000000
