10
Lattice="16.28999089631971 0.0 0.0 0.0 16.28999089631971 0.0 0.0 0.0 34.40785480372833" Properties=species:S:1:pos:R:3:initial_magmoms:R:1 pbc="T T T"
Si       1.35697329      -1.35708732      -1.35797556       0.00000000
Si      -1.35727140       1.35734796      -1.35759708       0.00000000
Si      -1.35587209      -1.35798327       1.35838846       0.00000000
Si       1.35778779       1.35746199       1.35831964       0.00000000
Si       2.71461447       0.00032580      -2.71371462       0.00000000
Si      -2.71547836      -0.00143352      -2.71350817       0.00000000
Si      -0.00060273       2.71585251      -2.71364580       0.00000000
Si      -0.00298107      -2.71507059      -2.71454041       0.00000000
Si       0.00451233      -2.72031597       2.70972330       0.00000000
Si      -2.71517846      -2.71511946      -0.00017204       0.00000000
