10
Lattice="16.28999089631971 0.0 0.0 0.0 16.28999089631971 0.0 0.0 0.0 34.40785480372833" Properties=species:S:1:pos:R:3:initial_magmoms:R:1 pbc="T T T"
Si       1.87854651       1.19681001       0.52327495       0.00000000
Si       0.09651825      -2.32078743       0.17537693       0.00000000
Si      -1.15598727       0.55120473       2.00212537       0.00000000
Si      -0.48119031       0.89704143      -2.14897818       0.00000000
Si      -2.60814303       2.11985028       1.03891135       0.00000000
Si      -2.15884854      -2.86669791      -0.38660687       0.00000000
Si      -2.58173694      -0.00294849      -2.56916714       0.00000000
Si      -3.61255185       0.59828283      -0.53937783       0.00000000
Si       1.41667614      -3.04886898      -1.57766984       0.00000000
Si       1.15722531       3.27523482       1.41437007       0.00000000
