10
Lattice="16.28999089631971 0.0 0.0 0.0 16.28999089631971 0.0 0.0 0.0 34.40785480372833" Properties=species:S:1:pos:R:3:initial_magmoms:R:1 pbc="T T T"
Si       1.35879777      -1.35373158       1.36327438       0.00000000
Si      -1.36014984       1.36070370       1.36303352       0.00000000
Si      -1.34488611      -1.35975888      -1.39759967       0.00000000
Si       1.36384767       1.36298430      -1.38675775       0.00000000
Si      -2.54904291       0.16539237      -2.82284263       0.00000000
Si       2.71611056      -2.71235016       0.00319993       0.00000000
Si      -2.71500543      -2.71520091       0.00034408       0.00000000
Si       2.71812401       2.71265967       0.00182362       0.00000000
Si      -0.00057015      -2.71218726       2.71977040       0.00000000
Si      -2.71437012       2.71811682       0.00591815       0.00000000
