10
Lattice="16.28999089631971 0.0 0.0 0.0 16.28999089631971 0.0 0.0 0.0 34.40785480372833" Properties=species:S:1:pos:R:3:initial_magmoms:R:1 pbc="T T T"
Si      -1.33227765       1.41346701       1.26717318       0.00000000
Si      -1.36531377      -1.34442999      -1.36547648       0.00000000
Si       1.34731332       1.37147139      -1.36692161       0.00000000
Si       1.29433824      -1.16222634       1.67070873       0.00000000
Si       0.41435244       2.42360991       2.54391176       0.00000000
Si      -0.42404499      -2.34958815       2.94063455       0.00000000
Si       2.18893032       0.69271596       3.02803055       0.00000000
Si       2.69138886      -2.68889256       0.02883380       0.00000000
Si      -0.00772146      -2.70265761      -2.72799388       0.00000000
Si       2.70612316       0.01251072      -2.72479395       0.00000000
