10
Lattice="16.28999089631971 0.0 0.0 0.0 16.28999089631971 0.0 0.0 0.0 34.40785480372833" Properties=species:S:1:pos:R:3:initial_magmoms:R:1 pbc="T T T"
Si      -0.36447246       1.87520706      -1.37115378       0.00000000
Si       1.49491116      -0.93602340      -1.59786726       0.00000000
Si      -1.96172325      -1.18633554       0.70918069       0.00000000
Si       0.78763683       1.26496737       1.88844176       0.00000000
Si       3.14163143      -1.60342470      -0.07958541       0.00000000
Si      -1.44405963       3.24767214       0.17413825       0.00000000
Si      -1.04471028       2.67923259       2.35989845       0.00000000
Si      -3.72179259      -0.52844760      -0.84839495       0.00000000
Si       1.74930721       2.67377544      -2.18187211       0.00000000
Si       2.02503338      -3.03761259       1.41309698       0.00000000
