10
Lattice="16.28999089631971 0.0 0.0 0.0 16.28999089631971 0.0 0.0 0.0 34.40785480372833" Properties=species:S:1:pos:R:3:initial_magmoms:R:1 pbc="T T T"
Si      -1.07958717       1.37246508       1.54529203       0.00000000
Si       0.36447246      -1.87520706       1.37115378       0.00000000
Si       2.11377967       0.79856838      -0.81071833       0.00000000
Si      -1.51177716      -0.50340987      -1.89054064       0.00000000
Si       1.85938362      -2.81123046      -0.22671348       0.00000000
Si      -3.35142315      -0.21191661      -0.47107820       0.00000000
Si      -0.00465894       3.26321280       0.93971345       0.00000000
Si       1.15210929      -0.61023969       3.25959554       0.00000000
Si       2.49432384      -1.23176835      -2.17148093       0.00000000
Si      -0.86752395       1.39719330      -3.14536140       0.00000000
