10
Lattice="16.28999089631971 0.0 0.0 0.0 16.28999089631971 0.0 0.0 0.0 34.40785480372833" Properties=species:S:1:pos:R:3:initial_magmoms:R:1 pbc="T T T"
Si      -1.83964599       0.29149326       1.41946244       0.00000000
Si       0.64425321       1.90060317      -1.25482076       0.00000000
Si       1.51177716       0.50340987       1.89054064       0.00000000
Si      -0.74782503      -1.83477528      -1.74392869       0.00000000
Si      -1.84554297      -1.90024479       2.41329947       0.00000000
Si       1.54153899       1.24558227      -3.25701495       0.00000000
Si      -0.90942183       3.65132205      -0.83968976       0.00000000
Si       0.43218999       1.87587495       3.43583267       0.00000000
Si      -1.99330956      -0.63773721      -3.35511180       0.00000000
Si      -1.85059287      -3.48702111       0.63809402       0.00000000
