10
Lattice="16.28999089631971 0.0 0.0 0.0 16.28999089631971 0.0 0.0 0.0 34.40785480372833" Properties=species:S:1:pos:R:3:initial_magmoms:R:1 pbc="T T T"
Si      -1.35609069      -1.35396778       1.35783793       0.00000000
Si      -1.35781743       1.35733167      -1.35670247       0.00000000
Si       1.35741510      -1.35742778      -1.35701214       0.00000000
Si       1.35930637       1.35713619       1.35856050       0.00000000
Si       2.71219739       0.00004887      -2.71436837       0.00000000
Si      -0.00029990       2.71368594      -2.71333613       0.00000000
Si      -2.71444863      -0.00086337      -2.71426514       0.00000000
Si      -2.71472556      -2.71430865       0.00027526       0.00000000
Si      -0.00169000      -2.71447858      -2.71474685       0.00000000
Si       2.71969079      -0.00519651       2.70989534       0.00000000
