10
Lattice="16.28999089631971 0.0 0.0 0.0 16.28999089631971 0.0 0.0 0.0 34.40785480372833" Properties=species:S:1:pos:R:3:initial_magmoms:R:1 pbc="T T T"
Si       1.66438188       1.59433488      -0.41086442       0.00000000
Si       0.21703167      -0.35965062       2.32604110       0.00000000
Si       0.72132120      -2.07842481      -0.89109512       0.00000000
Si      -2.13543981       0.39618909      -1.01066248       0.00000000
Si       3.27599786      -0.22866273      -0.65884197       0.00000000
Si       0.60729120       2.57909796      -2.31375749       0.00000000
Si      -2.31321258      -2.72403009       0.58775530       0.00000000
Si      -0.90534933      -2.47695966       2.51875960       0.00000000
Si      -1.70901648      -0.03435561      -3.30205486       0.00000000
Si      -1.15722531      -3.27523482      -1.41437007       0.00000000
