10
Lattice="16.28999089631971 0.0 0.0 0.0 16.28999089631971 0.0 0.0 0.0 34.40785480372833" Properties=species:S:1:pos:R:3:initial_magmoms:R:1 pbc="T T T"
Si       1.29303504      -1.37042883      -1.47482470       0.00000000
Si      -1.40590845       1.33158762      -1.45934116       0.00000000
Si      -1.67510070      -1.07870751       1.40267139       0.00000000
Si       1.21125924       1.87257527       1.07101390       0.00000000
Si       2.62531269       0.49997987       2.49099245       0.00000000
Si       2.76286742      -2.64243348      -0.18184561       0.00000000
Si      -2.57476482       2.86546706      -0.06902220       0.00000000
Si       2.65357946      -0.01782613      -2.83782382       0.00000000
Si      -0.05778063       2.69088713      -2.83758296       0.00000000
Si      -0.06012639      -2.73393441      -2.84050763       0.00000000
