10
Lattice="16.28999089631971 0.0 0.0 0.0 16.28999089631971 0.0 0.0 0.0 34.40785480372833" Properties=species:S:1:pos:R:3:initial_magmoms:R:1 pbc="T T T"
Si       1.65082860      -1.06828191      -1.36065938       0.00000000
Si      -1.07656049       1.67946642      -1.32501282       0.00000000
Si       1.94662242       0.90241713       1.17616436       0.00000000
Si      -2.06972921      -2.04452532       0.00051612       0.00000000
Si      -1.49621532       0.17808228       2.51050171       0.00000000
Si       0.30099033      -2.41118064      -2.72665198       0.00000000
Si      -2.42634995       0.31648212      -2.72190369       0.00000000
Si      -0.60126390      -2.00401209       3.05369882       0.00000000
Si       3.10003587      -2.35874313       0.02921229       0.00000000
Si      -2.47361111       3.20613264       0.31686211       0.00000000
