10
Lattice="16.28999089631971 0.0 0.0 0.0 16.28999089631971 0.0 0.0 0.0 34.40785480372833" Properties=species:S:1:pos:R:3:initial_magmoms:R:1 pbc="T T T"
Si       0.67140864       2.03346441      -0.95667653       0.00000000
Si      -0.23967477      -1.68503760      -1.61579376       0.00000000
Si       1.05709068      -0.98476308       1.90289307       0.00000000
Si      -2.19921516       0.91999404       0.41120850       0.00000000
Si       1.04342337       1.15875657       2.95470737       0.00000000
Si      -0.60729120      -2.57909796       2.31375749       0.00000000
Si      -2.31630768      -2.61345357      -0.98829737       0.00000000
Si      -2.74273101      -2.18290887       1.30309501       0.00000000
Si      -0.62630163       2.24876934      -2.96031585       0.00000000
Si       0.07798023       3.74299958       0.58035761       0.00000000
