10
Lattice="16.28999089631971 0.0 0.0 0.0 16.28999089631971 0.0 0.0 0.0 34.40785480372833" Properties=species:S:1:pos:R:3:initial_magmoms:R:1 pbc="T T T"
Si      -1.11311199       1.65625317      -1.36809148       0.00000000
Si       1.30346064       1.35982404       1.54074473       0.00000000
Si       1.18387575      -0.60119874      -2.08067855       0.00000000
Si      -1.39662315      -1.32201495       1.60766804       0.00000000
Si      -0.81233343      -1.51539354      -3.12096621       0.00000000
Si       0.80135397       2.93593271      -2.15678877       0.00000000
Si       1.87124859       3.28979875       0.17021575       0.00000000
Si      -2.86233219      -2.48974731       0.15125701       0.00000000
Si      -2.08339326       0.45783045      -3.15083225       0.00000000
Si      -3.35161863      -0.88202205      -1.60292522       0.00000000
