10
Lattice="16.28999089631971 0.0 0.0 0.0 16.28999089631971 0.0 0.0 0.0 34.40785480372833" Properties=species:S:1:pos:R:3:initial_magmoms:R:1 pbc="T T T"
Si      -1.40128028      -0.95728185       1.57047859       0.00000000
Si      -1.30697747       1.26482076      -1.50094028       0.00000000
Si       1.64743298       1.59625710       0.62378035       0.00000000
Si       1.24314776      -1.57933179      -1.37091293       0.00000000
Si       0.40552737       1.68813270      -3.00249990       0.00000000
Si       1.24769919       3.11458284      -1.26868713       0.00000000
Si       3.56044913       0.26386542       0.37993175       0.00000000
Si      -2.93364800       0.86628591       1.90891444       0.00000000
Si       0.13017864      -1.77806979       3.20333866       0.00000000
Si      -2.37455891      -2.77161318       0.38055109       0.00000000
