10
Lattice="16.28999089631971 0.0 0.0 0.0 16.28999089631971 0.0 0.0 0.0 34.40785480372833" Properties=species:S:1:pos:R:3:initial_magmoms:R:1 pbc="T T T"
Si      -1.34947826       1.35549090      -1.35986800       0.00000000
Si      -1.35478228      -1.35747665       1.35735622       0.00000000
Si       1.35777150      -1.35195923      -1.36416898       0.00000000
Si       1.35995436       1.35798327       1.35656484       0.00000000
Si       0.02746494       2.68578117      -2.70457244       0.00000000
Si      -2.72128427      -0.00185706      -2.69811409       0.00000000
Si      -2.71249729       2.71363707       0.00103224       0.00000000
Si      -2.71219739      -0.00004887       2.71436837       0.00000000
Si      -2.71388738      -2.71452745      -0.00037849       0.00000000
Si       0.00402363      -2.71490630       2.71440277       0.00000000
