10
Lattice="16.28999089631971 0.0 0.0 0.0 16.28999089631971 0.0 0.0 0.0 34.40785480372833" Properties=species:S:1:pos:R:3:initial_magmoms:R:1 pbc="T T T"
Si      -1.34082990      -1.35226548      -1.38120088       0.00000000
Si       1.37171574       1.36234899      -1.38123529       0.00000000
Si       1.25457435      -1.49483556       1.35642721       0.00000000
Si      -1.37920914       1.43586576       1.50094028       0.00000000
Si       2.52605772      -0.07998390       2.78153254       0.00000000
Si      -2.68145129       2.71635750      -0.02893702       0.00000000
Si      -2.71417790      -2.69970912       0.01094170       0.00000000
Si      -2.69944359       0.00169416      -2.74268605       0.00000000
Si       2.73908205      -2.70624141      -0.02387906       0.00000000
Si       0.01664838      -2.71257822      -2.74210111       0.00000000
