10
Lattice="16.28999089631971 0.0 0.0 0.0 16.28999089631971 0.0 0.0 0.0 34.40785480372833" Properties=species:S:1:pos:R:3:initial_magmoms:R:1 pbc="T T T"
Si       2.08964862       0.14781546      -1.04789180       0.00000000
Si      -0.98652240      -1.70785989      -1.29986067       0.00000000
Si      -1.15308765       2.04885846       0.27691457       0.00000000
Si       0.17399349      -1.13176404       2.09815775       0.00000000
Si      -3.34051699       1.16053218       0.66816651       0.00000000
Si      -1.99754496      -1.98394281       2.31651012       0.00000000
Si       2.83178844      -2.06350317      -1.11546887       0.00000000
Si       3.43354104       1.12743090       0.69352511       0.00000000
Si       0.86165955      -2.91968928      -2.09592124       0.00000000
Si       0.03854214       3.13101945       2.05821021       0.00000000
