10
Lattice="16.28999089631971 0.0 0.0 0.0 16.28999089631971 0.0 0.0 0.0 34.40785480372833" Properties=species:S:1:pos:R:3:initial_magmoms:R:1 pbc="T T T"
Si       1.91301615      -1.33239168      -0.24384860       0.00000000
Si      -1.64743298      -1.59625710      -0.62378035       0.00000000
Si       0.70480314       1.72226025       1.55547676       0.00000000
Si      -0.39973379       1.51832574      -1.89246748       0.00000000
Si       0.50974668      -1.88716392       2.43583663       0.00000000
Si       2.66952375      -0.11611512      -2.14629437       0.00000000
Si       1.81314216       2.07360297      -2.16016074       0.00000000
Si      -2.95441046      -0.33143634      -2.12472063       0.00000000
Si       2.04895620       3.03142239      -0.01465775       0.00000000
Si      -1.50061102       1.93036500       2.86824038       0.00000000
