10
Lattice="16.28999089631971 0.0 0.0 0.0 16.28999089631971 0.0 0.0 0.0 34.40785480372833" Properties=species:S:1:pos:R:3:initial_magmoms:R:1 pbc="T T T"
Si       1.35555606      -1.35443205      -1.35818201       0.00000000
Si      -1.35483930       1.35252612      -1.36169161       0.00000000
Si       1.35637056       1.35741312       1.35739063       0.00000000
Si      -1.35813151      -1.35741312       1.35704655       0.00000000
Si       2.70780525       0.00412137      -2.71983234       0.00000000
Si       2.71437012      -2.71355562      -0.00010322       0.00000000
Si      -2.71416554      -2.71386513      -0.00024086       0.00000000
Si       2.71378368      -0.00003258       2.71433396       0.00000000
Si      -0.00092853      -2.71435383       2.71450600       0.00000000
Si      -0.00004887       2.71520949       2.71398988       0.00000000
