10
Lattice="10.86 0.0 0.0 0.0 10.86 0.0 0.0 0.0 10.86" Properties=species:S:1:pos:R:3:initial_magmoms:R:1 pbc="T T T"
Si       1.29159066      -1.29159066       1.24281840       0.00000000
Si       1.30531770       1.40968230      -1.38466086       0.00000000
Si      -1.40968230      -1.30531770      -1.38466086       0.00000000
Si      -1.40968230       1.40968230       1.33033914       0.00000000
Si       2.66281770       0.05218230      -2.74216086       0.00000000
Si      -0.05218230      -2.66281770      -2.74216086       0.00000000
Si       2.66281770       2.76718230      -0.02716086       0.00000000
Si      -2.76718230      -2.66281770      -0.02716086       0.00000000
Si      -0.05218230       2.76718230       2.68783914       0.00000000
Si      -2.76718230       0.05218230       2.68783914       0.00000000
