10
Lattice="16.290000149 0.0 0.0 0.0 16.290000149 0.0 0.0 0.0 29.1751946751" Properties=species:S:1:pos:R:3:initial_magmoms:R:1 pbc="T T T"
Si      -1.34527708       1.27930258       1.46109375       0.00000000
Si      -1.37179720      -1.40688586      -1.31176052       0.00000000
Si       1.34022718      -1.33584517       1.42147383       0.00000000
Si       1.34082991       1.41876127      -1.35959033       0.00000000
Si       2.66970296      -0.02221956      -2.67378989       0.00000000
Si       0.05903496      -2.77879710      -2.59704162       0.00000000
Si      -2.68058468      -2.69597873       0.15865471       0.00000000
Si      -2.77879710       2.59864598       0.17846467       0.00000000
Si      -2.72165177      -0.04518846      -2.68713171       0.00000000
Si       2.68793147       2.75156022       0.02885427       0.00000000
