10
Lattice="16.290000149 0.0 0.0 0.0 16.290000149 0.0 0.0 0.0 29.1751946751" Properties=species:S:1:pos:R:3:initial_magmoms:R:1 pbc="T T T"
Si       1.25907040       1.36761067      -1.42481148       0.00000000
Si       1.37603260      -1.26319177       1.41643528       0.00000000
Si      -0.81013429      -1.85837951      -1.18226116       0.00000000
Si      -1.42610806       1.37762902       1.29279080       0.00000000
Si      -2.68455944      -2.65994525       0.01316385       0.00000000
Si      -0.05159043      -2.65276136       2.69776023       0.00000000
Si       2.66256794      -2.71124246       0.08651904       0.00000000
Si       2.64691325       2.74853028      -0.08477436       0.00000000
Si      -0.08262288       2.74683612       2.65656486       0.00000000
Si      -0.19683207       2.78127318      -2.63835370       0.00000000
