10
Lattice="16.290000149 0.0 0.0 0.0 16.290000149 0.0 0.0 0.0 29.1751946751" Properties=species:S:1:pos:R:3:initial_magmoms:R:1 pbc="T T T"
Si      -1.49688811      -1.36819711       1.15872203       0.00000000
Si       1.39204567      -1.35298225      -1.31127912       0.00000000
Si       1.34021089       1.28502037       1.43288134       0.00000000
Si      -1.34052040       1.34439742      -1.38538412       0.00000000
H       -0.84569536      -2.21692241       2.22857642       0.00000000
Si      -0.00430056      -2.72577314      -2.62856834       0.00000000
Si       2.69847110       2.66367566       0.07845210       0.00000000
Si      -2.92772028      -0.14340087       2.44765296       0.00000000
Si       2.74090656      -2.66181860       0.11947242       0.00000000
Si       2.73890289      -0.01018125      -2.68306760       0.00000000
