10
Lattice="16.290000149 0.0 0.0 0.0 16.290000149 0.0 0.0 0.0 29.1751946751" Properties=species:S:1:pos:R:3:initial_magmoms:R:1 pbc="T T T"
Si      -1.37184933       1.34524450      -1.35297048       0.00000000
Si      -1.32962565      -1.39786120       1.34398452       0.00000000
Si       1.29862252      -1.35711991      -1.41808951       0.00000000
Si       1.35060391       1.38489436       1.35232862       0.00000000
Si       2.77438251       0.01268991       2.60581169       0.00000000
Si      -2.73391815      -0.08083098       2.65826869       0.00000000
Si       2.60786612      -2.78347233      -0.11950160       0.00000000
Si      -0.01141929       2.69120576      -2.71043394       0.00000000
Si      -2.70753089       2.71134020       0.02261078       0.00000000
Si      -2.71921456      -0.03515382      -2.70439467       0.00000000
