10
Lattice="16.290000149 0.0 0.0 0.0 16.290000149 0.0 0.0 0.0 29.1751946751" Properties=species:S:1:pos:R:3:initial_magmoms:R:1 pbc="T T T"
Si      -1.32145296       0.27047916       1.90846618       0.00000000
Si       2.21065076      -0.07213212       0.80806537       0.00000000
Si      -1.29865836      -0.13351284      -2.01550997       0.00000000
Si      -0.54586162       2.38839095       0.73649861       0.00000000
Si      -0.53131464      -1.99122446       1.69534139       0.00000000
H        2.05284953       0.72330859       2.08395498       0.00000000
H       -2.43042241       0.84149254      -1.73233553       0.00000000
H        0.12118131      -1.63659115      -2.76041104       0.00000000
H        0.64848862       2.74996380       1.63022235       0.00000000
H        0.75085498      -1.95033656       2.51533941       0.00000000
