10
Lattice="16.290000149 0.0 0.0 0.0 16.290000149 0.0 0.0 0.0 29.1751946751" Properties=species:S:1:pos:R:3:initial_magmoms:R:1 pbc="T T T"
Si      -1.48545253       1.79991470      -0.12026015       0.00000000
Si       1.12532950      -1.11505051      -1.75299157       0.00000000
Si      -1.65639980      -1.52855587       0.73113038       0.00000000
Si       1.86023657       0.84240478       1.25310379       0.00000000
H       -0.75965158       0.56184211       2.49622966       0.00000000
H       -1.40797729       0.98849350       2.45780593       0.00000000
Si       2.46645263      -2.52938090      -0.38076547       0.00000000
H        1.37295379       3.21172014      -0.96998770       0.00000000
H        0.79889419       3.33619203       1.35717171       0.00000000
Si       2.55673181       2.70032816      -0.16801995       0.00000000
