10
Lattice="16.290000149 0.0 0.0 0.0 16.290000149 0.0 0.0 0.0 29.1751946751" Properties=species:S:1:pos:R:3:initial_magmoms:R:1 pbc="T T T"
Si      -1.25380873       1.10713357      -1.60110551       0.00000000
Si      -1.89104096      -0.01350278       1.34430544       0.00000000
Si       0.42008652      -2.29293155       0.29490287       0.00000000
Si       1.57737700       1.68591728       0.44334626       0.00000000
H        1.84033019       0.57831618      -2.37509425       0.00000000
H       -2.06842277       1.37613034       1.95007001       0.00000000
Si      -1.05617845      -1.25887492       3.05600245       0.00000000
Si       2.04242393      -2.46806534      -1.37666074       0.00000000
Si       0.84980044       2.32199291       2.62337049       0.00000000
Si      -2.58273065       2.65505825      -0.44285028       0.00000000
