10
Lattice="16.290000149 0.0 0.0 0.0 16.290000149 0.0 0.0 0.0 29.1751946751" Properties=species:S:1:pos:R:3:initial_magmoms:R:1 pbc="T T T"
Si       0.81731818      -0.97896385      -1.94481848       0.00000000
Si      -1.33349941      -1.33270120       1.39486606       0.00000000
Si       1.59420457       1.13127535       1.33628227       0.00000000
Si      -1.50635260       1.30427515      -1.29409494       0.00000000
H        1.26983809       0.30621942      -2.60438210       0.00000000
H        0.69833602       1.88035472       2.31327201       0.00000000
Si      -1.06269445      -1.68731822      -3.21825737       0.00000000
Si      -2.55813275       2.79244812       0.16171810       0.00000000
Si      -2.53004879       0.13856274       2.82780574       0.00000000
Si      -2.90064630      -2.45081423      -0.07471767       0.00000000
