10
Lattice="16.290000149 0.0 0.0 0.0 16.290000149 0.0 0.0 0.0 29.1751946751" Properties=species:S:1:pos:R:3:initial_magmoms:R:1 pbc="T T T"
Si      -1.35826021      -1.37865529       1.35442924       0.00000000
Si       1.38831526      -1.35480673      -1.34941110       0.00000000
Si       1.40665780       1.36677988       1.31863127       0.00000000
Si      -1.33131655       1.31670442      -1.44338441       0.00000000
Si      -2.69847110      -2.66367566      -0.07845210       0.00000000
Si       2.69684210      -0.04559571       2.67939153       0.00000000
H       -1.11063592       2.94811536       2.13743311       0.00000000
Si       0.07314210       2.43672338       2.93940086       0.00000000
Si       2.72578944       2.69223203      -0.12376118       0.00000000
Si       0.04043178      -2.67385691      -2.76151970       0.00000000
