10
Lattice="16.290000149 0.0 0.0 0.0 16.290000149 0.0 0.0 0.0 29.1751946751" Properties=species:S:1:pos:R:3:initial_magmoms:R:1 pbc="T T T"
Si      -1.32146110      -1.32657616       1.36449993       0.00000000
Si       1.26188694      -1.42871446      -1.32666962       0.00000000
Si      -1.14005566       1.50109093      -1.38376548       0.00000000
Si       1.50618156       1.38412873       1.16894444       0.00000000
Si       1.94281058       0.33492240      -2.83342255       0.00000000
H       -2.32194404       0.96241321      -2.43407249       0.00000000
Si       0.53032584       2.28584540      -2.83030081       0.00000000
Si       0.10591758       2.73473265       2.53667756       0.00000000
Si       0.12921082      -2.71063973       2.59128769       0.00000000
Si      -2.57870702       0.07451046       2.72975025       0.00000000
