10
Lattice="16.290000149 0.0 0.0 0.0 16.290000149 0.0 0.0 0.0 29.1751946751" Properties=species:S:1:pos:R:3:initial_magmoms:R:1 pbc="T T T"
Si       1.33161140       1.35956341       1.37893932       0.00000000
Si      -1.29463147      -1.31509171       1.46882809       0.00000000
Si      -1.38932524       1.35953083      -1.35626436       0.00000000
Si       1.40026398      -1.35060391      -1.36773313       0.00000000
Si      -0.10591758      -2.73473265      -2.53667756       0.00000000
Si       0.07002110       2.53864991      -2.77190315       0.00000000
Si      -2.68462460      -2.66022218       0.19307269       0.00000000
Si       2.67718007       2.68881113      -0.00178552       0.00000000
Si       2.70179426       0.01119123       2.74226699       0.00000000
Si       2.75970522      -2.68956047       0.01265620       0.00000000
