10
Lattice="16.290000149 0.0 0.0 0.0 16.290000149 0.0 0.0 0.0 29.1751946751" Properties=species:S:1:pos:R:3:initial_magmoms:R:1 pbc="T T T"
Si       1.42974073       1.38675142       1.17818189       0.00000000
Si      -1.31988097       1.44001972      -1.27676487       0.00000000
Si       1.43472547      -1.32113530      -1.28210393       0.00000000
Si      -1.38640933      -1.33213105       1.34153380       0.00000000
Si       0.05677065      -2.66058056      -2.61473930       0.00000000
Si      -2.66898620       0.07980471      -2.62547577       0.00000000
Si       0.01019754      -2.61509888       2.70004757       0.00000000
Si      -2.56932398       0.12039939       2.75396333       0.00000000
Si       2.72587089       0.09632277       2.60697870       0.00000000
Si       0.06846687       2.80103295      -2.58935688       0.00000000
