10
Lattice="16.290000149 0.0 0.0 0.0 16.290000149 0.0 0.0 0.0 29.1751946751" Properties=species:S:1:pos:R:3:initial_magmoms:R:1 pbc="T T T"
Si      -0.57329398       1.04770765       1.99459136       0.00000000
Si      -1.60863751      -1.70158826      -0.04335434       0.00000000
Si       2.19792827      -0.72210313      -0.45163201       0.00000000
Si       0.04056210       2.15056347      -0.97132976       0.00000000
Si       0.68561353       2.82551682       1.17258025       0.00000000
Si       1.90905770       0.16081488      -2.69257872       0.00000000
Si       1.92265985      -2.75211408       0.74551375       0.00000000
Si      -3.43139079      -0.24612561       0.12157304       0.00000000
Si      -0.21794391      -0.81397873      -3.36976416       0.00000000
Si      -1.27681021      -2.57461823      -2.18606816       0.00000000
