10
Lattice="16.290000149 0.0 0.0 0.0 16.290000149 0.0 0.0 0.0 29.1751946751" Properties=species:S:1:pos:R:3:initial_magmoms:R:1 pbc="T T T"
Si      -1.26188694       1.42871446       1.32666962       0.00000000
Si       1.63432847      -1.18291465       1.21337301       0.00000000
Si       0.68092364       1.76363687      -1.50675293       0.00000000
Si      -1.33449147      -1.97793182      -0.48530019       0.00000000
Si       0.29860873      -2.58990314       2.56595254       0.00000000
Si       0.16574424       0.85662595      -3.60135686       0.00000000
Si      -2.58334804       0.10213830       2.69116955       0.00000000
Si      -0.40246563      -2.79418952      -2.47927887       0.00000000
Si       0.24429462       2.81284320       2.49561406       0.00000000
Si      -2.40194260       2.92980540      -0.05709586       0.00000000
