10
Lattice="16.290000149 0.0 0.0 0.0 16.290000149 0.0 0.0 0.0 29.1751946751" Properties=species:S:1:pos:R:3:initial_magmoms:R:1 pbc="T T T"
Si       1.25566579       1.35248899      -1.40811160       0.00000000
Si      -1.31053051       1.40238298       1.33572794       0.00000000
Si      -1.28226736      -1.46940688      -1.29715833       0.00000000
Si       1.22339530      -1.51019704       1.35711336       0.00000000
H       -1.92994148      -2.29907288      -0.22389044       0.00000000
H        2.83441930       1.09659394       0.12063943       0.00000000
Si      -2.60737742      -0.03841182       2.61074230       0.00000000
Si       2.46744795       2.78001070       0.04463805       0.00000000
Si      -0.21468591       2.63354894      -2.67160175       0.00000000
Si       2.66878747      -0.06024042      -2.66133208       0.00000000
