10
Lattice="16.290000149 0.0 0.0 0.0 16.290000149 0.0 0.0 0.0 29.1751946751" Properties=species:S:1:pos:R:3:initial_magmoms:R:1 pbc="T T T"
Si      -1.33062863       1.40784697      -1.31136665       0.00000000
Si       1.33494482       1.37699371       1.34550163       0.00000000
Si      -1.38489062      -1.33191928       1.36717880       0.00000000
Si       1.34952763      -1.32758614      -1.40644861       0.00000000
Si      -2.72062176       0.06271650      -2.58712206       0.00000000
Si       2.64416399      -2.67981905       0.02552830       0.00000000
Si       2.67879653       0.01935252       2.70847920       0.00000000
Si       2.66579711       2.73412992      -0.03792775       0.00000000
Si      -0.05222199       2.73955449       2.66839248       0.00000000
Si      -2.75325063      -2.68107338       0.02879592       0.00000000
