10
Lattice="16.290000149 0.0 0.0 0.0 16.290000149 0.0 0.0 0.0 29.1751946751" Properties=species:S:1:pos:R:3:initial_magmoms:R:1 pbc="T T T"
Si      -1.19738832      -1.51977556       1.31095820       0.00000000
Si       1.38727270      -1.34082991      -1.31912725       0.00000000
Si       1.52313130       1.32810742       1.18486301       0.00000000
Si      -1.04862641       1.54906498      -1.46926280       0.00000000
H        2.75532321      -0.75904885      -1.05173659       0.00000000
Si       0.10489131       2.50110146       2.65330890       0.00000000
Si      -1.41911477      -3.36841365      -0.13035477       0.00000000
Si       2.28817487       2.82788701      -0.53836987       0.00000000
Si       0.89682967      -3.54885798      -0.71943113       0.00000000
Si      -0.77017492       0.68018896      -3.59668882       0.00000000
