10
Lattice="16.290000149 0.0 0.0 0.0 16.290000149 0.0 0.0 0.0 29.1751946751" Properties=species:S:1:pos:R:3:initial_magmoms:R:1 pbc="T T T"
Si      -1.34814412      -1.36117612      -1.35104492       0.00000000
Si       1.34306164      -1.38272779       1.34401369       0.00000000
Si      -1.38769624       1.35211888       1.33301464       0.00000000
Si       1.34838847       1.34745994      -1.37820702       0.00000000
Si       2.71015103      -0.02298519       2.67189350       0.00000000
Si      -0.03637557       2.73818612       2.65529282       0.00000000
Si      -2.69199583      -0.00353493      -2.71402248       0.00000000
Si       2.71440272       2.70278795      -0.03206354       0.00000000
Si       0.01032786      -2.71717202      -2.70486147       0.00000000
Si      -0.03179808      -2.72010422       2.70570755       0.00000000
