10
Lattice="16.290000149 0.0 0.0 0.0 16.290000149 0.0 0.0 0.0 29.1751946751" Properties=species:S:1:pos:R:3:initial_magmoms:R:1 pbc="T T T"
Si       0.27845149      -0.86887603      -2.12742602       0.00000000
Si      -2.27386573       0.47270322      -0.12393623       0.00000000
Si       1.26182993       2.00780931       0.08230322       0.00000000
Si       1.04862641      -1.54906498       1.46926280       0.00000000
Si      -2.56104215       1.22066021       2.07601933       0.00000000
Si       3.33680128       1.27882203       0.93089294       0.00000000
Si       2.57175771      -0.22095756       2.65412581       0.00000000
Si       1.26041270       0.83414575      -3.40929655       0.00000000
Si       1.94864891      -2.49284243      -2.06245286       0.00000000
Si       2.43589911      -2.88989490       0.15013555       0.00000000
