10
Lattice="16.290000149 0.0 0.0 0.0 16.290000149 0.0 0.0 0.0 29.1751946751" Properties=species:S:1:pos:R:3:initial_magmoms:R:1 pbc="T T T"
Si      -1.36721971      -1.34978941       1.35014340       0.00000000
Si       1.30517110       1.29573919       1.47440056       0.00000000
Si      -1.37269315       1.41152851      -1.30214437       0.00000000
Si       1.36231642      -1.34809525      -1.39119582       0.00000000
Si       2.66119958       2.63621072       0.15944536       0.00000000
Si       2.71217099      -2.70979265      -0.01582463       0.00000000
Si      -0.01464471      -2.66791106       2.75732139       0.00000000
Si      -2.72981306       0.02469564       2.69900018       0.00000000
Si      -2.71070489      -2.71899650      -0.01363065       0.00000000
Si      -2.78573664       0.11645721      -2.64705520       0.00000000
