10
Lattice="16.290000149 0.0 0.0 0.0 16.290000149 0.0 0.0 0.0 29.1751946751" Properties=species:S:1:pos:R:3:initial_magmoms:R:1 pbc="T T T"
H        0.84362653       0.93644695       0.80899897       0.00000000
Si       1.42939864      -1.44497188      -1.12018160       0.00000000
Si      -1.29613015       1.29042865      -1.42879681       0.00000000
Si      -1.83412370      -0.82422514       1.16140615       0.00000000
H        1.65007928       0.18643905       2.46063592       0.00000000
H        2.29014596       1.85336219       1.36119788       0.00000000
Si      -2.37721601       2.71109585       0.06882428       0.00000000
Si       2.77695633      -0.05048271      -2.46410777       0.00000000
Si       0.06726141      -2.75006154      -2.51110901       0.00000000
Si      -1.20832705      -1.22536639       3.31036346       0.00000000
