10
Lattice="16.290000149 0.0 0.0 0.0 16.290000149 0.0 0.0 0.0 29.1751946751" Properties=species:S:1:pos:R:3:initial_magmoms:R:1 pbc="T T T"
Si      -1.36808308       1.35659863      -1.32767558       0.00000000
Si       1.34910523       1.36021501       1.34871090       0.00000000
Si      -1.37609776      -1.32921514       1.35553789       0.00000000
Si       1.37468053      -1.36461331      -1.33181846       0.00000000
Si       2.66898620      -0.07980471       2.62547577       0.00000000
Si      -0.00003258       2.70120782      -2.66996794       0.00000000
Si       0.00866628      -2.71994132      -2.67796194       0.00000000
Si      -2.70889670      -0.00565263      -2.69228696       0.00000000
Si      -2.68613957       2.71911053       0.06319347       0.00000000
Si       2.73458603      -0.00180819      -2.67533618       0.00000000
