10
Lattice="16.290000149 0.0 0.0 0.0 16.290000149 0.0 0.0 0.0 29.1751946751" Properties=species:S:1:pos:R:3:initial_magmoms:R:1 pbc="T T T"
Si      -1.37338711       1.33571485      -1.35568377       0.00000000
Si       1.28430361       1.47712834       1.29742091       0.00000000
Si      -1.49613714      -1.19072571       1.37928650       0.00000000
Si       1.40235724      -1.36843495      -1.32484559       0.00000000
H        2.19436076       0.59082202       2.11032936       0.00000000
H       -1.12916580      -2.87414247       1.45528789       0.00000000
H        0.07315839       0.21142791       3.41924529       0.00000000
Si      -2.70791930      -2.61824742      -0.07346314       0.00000000
Si      -2.64205883       2.69078222       0.07705169       0.00000000
Si       0.04496040      -2.69895980      -2.70970456       0.00000000
