10
Lattice="16.290000149 0.0 0.0 0.0 16.290000149 0.0 0.0 0.0 29.1751946751" Properties=species:S:1:pos:R:3:initial_magmoms:R:1 pbc="T T T"
Si       0.72731593      -1.32918256       1.79307829       0.00000000
Si      -1.76072096       0.97151932       1.25607966       0.00000000
Si       1.38518758       1.83006749      -0.75324518       0.00000000
Si       0.10658547      -1.73071478      -1.80603208       0.00000000
H       -2.14184180      -0.25754490      -1.32977620       0.00000000
Si       2.87580405       0.56086471      -2.03071025       0.00000000
Si       2.72416043      -2.22259785       0.82959666       0.00000000
Si      -0.78806134      -3.18088806       1.71900247       0.00000000
Si      -2.79303456       0.59118040      -2.39963059       0.00000000
Si       1.44476011      -0.70244110      -3.43888020       0.00000000
