10
Lattice="16.290000149 0.0 0.0 0.0 16.290000149 0.0 0.0 0.0 29.1751946751" Properties=species:S:1:pos:R:3:initial_magmoms:R:1 pbc="T T T"
Si      -1.32736297       1.36042678      -1.36522406       0.00000000
Si       1.31098663       1.43018056       1.32227817       0.00000000
Si      -1.33399789      -1.37406151       1.36519488       0.00000000
Si       1.37933947      -1.34697124      -1.35606305       0.00000000
Si       2.66892104       0.07654671       2.62559247       0.00000000
Si      -2.64622907       2.69278589       0.04703041       0.00000000
Si       2.68400558       2.68496669      -0.10788987       0.00000000
Si      -2.66958893       0.00122175      -2.72105371       0.00000000
Si      -2.60266961      -0.01899414       2.79793034       0.00000000
Si       0.02357163      -2.71344161      -2.69488356       0.00000000
