10
Lattice="16.290000149 0.0 0.0 0.0 16.290000149 0.0 0.0 0.0 29.1751946751" Properties=species:S:1:pos:R:3:initial_magmoms:R:1 pbc="T T T"
H       -1.18377802       0.51139197      -0.80196775       0.00000000
Si       1.33351570      -1.06994350      -1.62076959       0.00000000
H       -1.75783763       0.63586387       1.52519165       0.00000000
Si       1.29705868       1.67407445       1.17234685       0.00000000
Si      -0.69649525      -1.85792339       1.42112373       0.00000000
H       -0.54371133       2.17831511      -1.90140579       0.00000000
H        1.52707348      -1.07105122       2.54629429       0.00000000
Si      -3.07046955       1.09791343       0.92149852       0.00000000
H       -1.99023077       1.26139987      -2.45360470       0.00000000
Si       2.56160252       0.03429045       2.32908497       0.00000000
