10
Lattice="16.290000149 0.0 0.0 0.0 16.290000149 0.0 0.0 0.0 29.1751946751" Properties=species:S:1:pos:R:3:initial_magmoms:R:1 pbc="T T T"
Si      -1.42939864       1.44497188       1.12018160       0.00000000
Si      -1.36213723      -1.30508965      -1.39092741       0.00000000
Si       1.34755768       1.39448917      -1.34392617       0.00000000
Si       1.33131655      -1.31670442       1.44338441       0.00000000
H       -0.58577212       2.38141883       1.92918057       0.00000000
Si      -2.70767495      -2.63598266      -0.02045181       0.00000000
Si       0.01094688      -2.66563046      -2.71052146       0.00000000
Si       2.71963181      -2.67151115       0.09397330       0.00000000
Si       2.72924292       0.04820211      -2.67912895       0.00000000
Si      -2.72552879       2.73540054      -0.30861521       0.00000000
