10
Lattice="16.290000149 0.0 0.0 0.0 16.290000149 0.0 0.0 0.0 29.1751946751" Properties=species:S:1:pos:R:3:initial_magmoms:R:1 pbc="T T T"
Si       0.48725019      -0.39705246       2.21258841       0.00000000
Si       1.81462457       1.30502449      -0.64655149       0.00000000
Si      -1.67019743       1.62396640      -0.06497316       0.00000000
Si      -0.68339809      -1.86237056      -1.30433543       0.00000000
H        1.85530070       0.18472860       2.47997907       0.00000000
Si       0.82530028       2.09183150      -2.62089526       0.00000000
Si      -2.10470060      -0.64265680      -2.68262998       0.00000000
Si      -0.68823622       3.32698818      -1.34684369       0.00000000
Si      -3.44122995       0.66831355      -1.26451129       0.00000000
Si       3.63737784      -0.15043815      -0.81147886       0.00000000
