10
Lattice="16.290000149 0.0 0.0 0.0 16.290000149 0.0 0.0 0.0 29.1751946751" Properties=species:S:1:pos:R:3:initial_magmoms:R:1 pbc="T T T"
Si       2.30052269       0.05475069      -0.45262397       0.00000000
Si      -0.85551823       2.08024931      -0.78694253       0.00000000
Si      -0.14410134       0.41306553       2.35968975       0.00000000
Si      -0.92895355      -2.07322017      -0.82504533       0.00000000
H       -2.31531401       0.20204487       0.92033152       0.00000000
H       -1.01331946       2.87569002       0.48894709       0.00000000
Si      -3.59748363       0.16115697       0.10033349       0.00000000
Si      -3.00392490      -1.34423289      -1.67363504       0.00000000
Si       3.06910119       2.10271322       0.42797093       0.00000000
Si       2.05884425       0.03007134       3.16536275       0.00000000
