10
Lattice="16.290000149 0.0 0.0 0.0 16.290000149 0.0 0.0 0.0 29.1751946751" Properties=species:S:1:pos:R:3:initial_magmoms:R:1 pbc="T T T"
Si       0.51716352      -0.68334922       2.23073538       0.00000000
Si      -2.01223856       1.36588393       0.08081529       0.00000000
Si       1.16584762       2.05633559      -0.59747881       0.00000000
Si      -1.22715829      -1.58741164      -1.41056231       0.00000000
Si       2.19006020      -1.42337134      -1.03895786       0.00000000
H       -1.03879702       1.11104317      -2.39665472       0.00000000
H       -2.66688479      -1.29565774      -0.96756616       0.00000000
H       -1.55971864       2.65106720      -0.57874834       0.00000000
Si      -0.00426798       2.21638484      -2.61386404       0.00000000
H        3.38441043      -1.06179850      -0.14523412       0.00000000
