10
Lattice="16.290000149 0.0 0.0 0.0 16.290000149 0.0 0.0 0.0 29.1751946751" Properties=species:S:1:pos:R:3:initial_magmoms:R:1 pbc="T T T"
Si       1.34610787       1.33072523      -1.34587507       0.00000000
Si      -1.35513253       1.39567346       1.28931020       0.00000000
Si       1.37090125      -1.36051312       1.31294211       0.00000000
Si      -1.30210858      -1.32679282      -1.42496611       0.00000000
Si      -2.67918049       0.01160825       2.65068314       0.00000000
Si      -0.01585017      -2.72004395       2.61707331       0.00000000
Si       0.03797199       2.73884913       2.61844455       0.00000000
Si       2.72670168       0.01135087       2.65044974       0.00000000
Si      -2.58071558       0.04508095      -2.81380749       0.00000000
Si      -2.64976889       2.74790637      -0.14266670       0.00000000
