10
Lattice="16.290000149 0.0 0.0 0.0 16.290000149 0.0 0.0 0.0 29.1751946751" Properties=species:S:1:pos:R:3:initial_magmoms:R:1 pbc="T T T"
Si      -1.36805050      -1.34460919       1.34229236       0.00000000
Si      -1.38318391       1.34532595      -1.33601969       0.00000000
Si       1.34996860      -1.36547668      -1.35527532       0.00000000
Si       1.36756180       1.36155079       1.35212440       0.00000000
Si       0.00356751       2.70485678      -2.64015089       0.00000000
Si       0.00003258      -2.70120782       2.66996794       0.00000000
Si       2.71336016      -0.00410508      -2.68522657       0.00000000
Si      -2.70886412      -2.70686045      -0.02231902       0.00000000
Si      -2.70006752       2.71640639       0.05295298       0.00000000
Si      -2.68610699       0.01790271       2.73316141       0.00000000
