10
Lattice="16.290000149 0.0 0.0 0.0 16.290000149 0.0 0.0 0.0 29.1751946751" Properties=species:S:1:pos:R:3:initial_magmoms:R:1 pbc="T T T"
Si       0.49044303       2.20802807      -0.59969613       0.00000000
Si       1.05339286       0.08065179       2.11050441       0.00000000
Si      -0.43352577      -1.81607438      -1.48361700       0.00000000
Si      -2.31594443       0.18044433       0.58907636       0.00000000
H        2.73732275       0.98945461      -0.76818288       0.00000000
H       -0.09738162      -2.93768976       1.04132105       0.00000000
H        1.85849354       2.78980914      -0.33230547       0.00000000
Si      -1.29173185      -3.29926260       0.14759731       0.00000000
Si      -2.09421798       2.02908242       2.03038932       0.00000000
Si      -1.99875044      -0.74218870      -2.84860766       0.00000000
