10
Lattice="16.290000149 0.0 0.0 0.0 16.290000149 0.0 0.0 0.0 29.1751946751" Properties=species:S:1:pos:R:3:initial_magmoms:R:1 pbc="T T T"
Si       1.25898895      -0.24545772      -1.93799148       0.00000000
Si      -0.37403469       2.12568212       0.90673588       0.00000000
Si      -2.05671026      -0.70918516      -0.88990179       0.00000000
Si       1.21772638      -1.32361138       1.51932744       0.00000000
H        2.57162087      -0.70750729      -1.33429835       0.00000000
H        0.36474939      -3.05520582      -0.23366413       0.00000000
H       -2.54011601       0.29041812       1.74949055       0.00000000
H       -1.38518758       2.07176222       2.04065899       0.00000000
H       -3.17555634      -0.66011968       0.12872096       0.00000000
Si       0.28727415      -2.24378462      -2.81173021       0.00000000
