10
Lattice="16.290000149 0.0 0.0 0.0 16.290000149 0.0 0.0 0.0 29.1751946751" Properties=species:S:1:pos:R:3:initial_magmoms:R:1 pbc="T T T"
Si      -1.41439555      -1.32841693       1.23688238       0.00000000
Si       1.36098064      -1.36954918      -1.26238150       0.00000000
Si       1.23338107       1.13669992       1.62476659       0.00000000
Si      -1.39404934       1.45015210      -1.19705824       0.00000000
Si      -0.36847980       1.06704388       3.41168891       0.00000000
Si       2.69638598       0.07842006      -2.51997826       0.00000000
Si      -2.49548141       0.09225027       2.73450347       0.00000000
Si      -0.06113637      -2.67761990      -2.57625722       0.00000000
Si       2.50953968       2.72833067       0.33221794       0.00000000
Si      -0.11826540      -2.61884558       2.66567919       0.00000000
