10
Lattice="16.290000149 0.0 0.0 0.0 16.290000149 0.0 0.0 0.0 29.1751946751" Properties=species:S:1:pos:R:3:initial_magmoms:R:1 pbc="T T T"
Si       2.07497135      -0.72898728       0.84858971       0.00000000
Si       0.73699219       0.61794324      -2.15493823       0.00000000
Si      -1.26182993      -2.00780931      -0.08230322       0.00000000
Si      -0.59355874       1.50538986       1.77396854       0.00000000
H        0.68861089       1.54627777       2.59396656       0.00000000
H        0.05893722       1.86002317      -2.68178389       0.00000000
Si      -0.06224409       3.49661432       0.07862715       0.00000000
Si       3.12476412      -1.39574513      -1.22751714       0.00000000
Si       1.30992778      -2.22876687       2.57182259       0.00000000
Si      -1.95190691       0.11627802       3.10917132       0.00000000
