10
Lattice="16.290000149 0.0 0.0 0.0 16.290000149 0.0 0.0 0.0 29.1751946751" Properties=species:S:1:pos:R:3:initial_magmoms:R:1 pbc="T T T"
Si      -1.28216962      -0.04088790      -0.81999802       0.00000000
Si       2.31531401      -0.20204487      -0.92033152       0.00000000
Si       2.17121267       0.21102066       1.43935823       0.00000000
Si       1.45979578       1.87820444      -1.70727404       0.00000000
H        1.30199455       2.67364514      -0.43138443       0.00000000
Si       0.64878184      -1.16118542       2.72213319       0.00000000
Si      -2.64051780      -1.42999974       0.51520476       0.00000000
Si      -0.79692310      -2.60205059       1.44630193       0.00000000
Si      -0.68861089      -1.54627777      -2.59396656       0.00000000
Si      -2.07230793       2.22081572      -0.60687322       0.00000000
