10
Lattice="10.86 0.0 0.0 0.0 10.86 0.0 0.0 0.0 10.86" Properties=species:S:1:pos:R:3:initial_magmoms:R:1 pbc="T T T"
Si      -1.10091078       1.25279874       1.58775372       0.00000000
Si       1.61408922       1.25279874      -1.12724628       0.00000000
Si       1.61408922      -1.46220126       1.58775372       0.00000000
Si      -2.45841078       2.61029874       0.23025372       0.00000000
Si       0.25658922       2.61029874      -2.48474628       0.00000000
Si      -2.45841078      -0.10470126       2.94525372       0.00000000
Si       2.97158922      -0.10470126      -2.48474628       0.00000000
Si       0.47565714      -2.90704824      -2.56795560       0.00000000
Si       0.25658922       2.61029874       2.94525372       0.00000000
Si       2.97158922       2.61029874       0.23025372       0.00000000
