10
Lattice="16.28999089631971 0.0 0.0 0.0 16.28999089631971 0.0 0.0 0.0 34.49183129400761" Properties=species:S:1:pos:R:3:initial_magmoms:R:1 pbc="T T T"
Si      -0.14325426       2.08614627      -1.17486141       0.00000000
Si      -1.37589738      -1.47958812      -1.40164533       0.00000000
Si       2.21460921      -1.17045279       0.00731227       0.00000000
Si      -0.44587359       0.43929243       2.46420128       0.00000000
Si       1.13889906       3.40916535       0.96570283       0.00000000
Si       1.67909175       2.33727291      -2.68405234       0.00000000
Si       0.06221151      -3.19634235      -2.32095662       0.00000000
Si       2.31344064      -2.60221347      -1.93368213       0.00000000
Si      -2.85146138      -2.87759592       0.18411750       0.00000000
Si      -2.27268306       2.03188428       2.86472345       0.00000000
