10
Lattice="16.28999089631971 0.0 0.0 0.0 16.28999089631971 0.0 0.0 0.0 34.49183129400761" Properties=species:S:1:pos:R:3:initial_magmoms:R:1 pbc="T T T"
Si       1.35791811       1.35564077      -1.35746127       0.00000000
Si      -1.35808101      -1.35661990      -1.35739229       0.00000000
Si      -1.35725022       1.35766073       1.35739229       0.00000000
Si       1.35754344      -1.35783512       1.35739229       0.00000000
Si       2.71608057      -0.00134555      -2.70912791       0.00000000
Si      -2.71430496       0.00094971       2.71495703       0.00000000
Si      -2.71376739      -0.00306741      -2.71575035       0.00000000
Si       2.71446786      -0.00092853       2.71509500       0.00000000
Si       2.71495656       2.71465031       0.00006898       0.00000000
Si      -0.00083079       2.71580690       2.71423271       0.00000000
