10
Lattice="16.28999089631971 0.0 0.0 0.0 16.28999089631971 0.0 0.0 0.0 34.49183129400761" Properties=species:S:1:pos:R:3:initial_magmoms:R:1 pbc="T T T"
Si      -2.18836602      -0.45351360       0.74467905       0.00000000
Si       0.24993747      -1.30386789      -1.97114028       0.00000000
Si       1.48263435      -1.15145865       1.45821197       0.00000000
Si       0.80747901       2.30946588      -0.33633003       0.00000000
Si       3.27582126      -0.94299552      -0.08681599       0.00000000
Si       2.49885342      -0.86387499      -2.29332865       0.00000000
Si      -3.48107526       0.50178087      -0.99326182       0.00000000
Si      -1.05438654       3.51582183       0.46477769       0.00000000
Si       2.44804491       2.59555086       1.32562529       0.00000000
Si       0.88694163       2.15741502       3.04735500       0.00000000
