10
Lattice="16.28999089631971 0.0 0.0 0.0 16.28999089631971 0.0 0.0 0.0 34.49183129400761" Properties=species:S:1:pos:R:3:initial_magmoms:R:1 pbc="T T T"
Si      -1.35694071       1.35749457       1.35721983       0.00000000
Si      -1.35671265      -1.35749457      -1.35784068       0.00000000
Si       1.35755973      -1.35759231       1.35749576       0.00000000
Si       1.35785295       1.35738054      -1.35801314       0.00000000
Si      -2.71217097       0.00143352       2.71564687       0.00000000
Si      -0.00063531      -2.71404432       2.71402575       0.00000000
Si       0.00276930       2.71528236       2.71299100       0.00000000
Si      -2.71479366      -2.71474479       0.00024144       0.00000000
Si      -2.71482624       2.71477737      -0.00020695       0.00000000
Si       2.71427238       0.00161271       2.71568136       0.00000000
