10
Lattice="16.28999089631971 0.0 0.0 0.0 16.28999089631971 0.0 0.0 0.0 34.49183129400761" Properties=species:S:1:pos:R:3:initial_magmoms:R:1 pbc="T T T"
Si       1.35523026       1.35606105      -1.35842704       0.00000000
Si      -1.36124127       1.35537687       1.35801314       0.00000000
Si       1.35736425      -1.36265850       1.35528828       0.00000000
Si      -1.35969372      -1.35896067      -1.35825458       0.00000000
Si       2.71153566      -2.71547784      -0.00162112       0.00000000
Si       2.71217097      -0.00143352      -2.71564687       0.00000000
Si       0.00723276       2.70444951       2.72423534       0.00000000
Si       2.71494027       2.71384884      -0.00265587       0.00000000
Si      -0.00265527       2.71334385      -2.71585382       0.00000000
Si      -0.00009774      -2.70780525       2.72233829       0.00000000
