10
Lattice="16.28999089631971 0.0 0.0 0.0 16.28999089631971 0.0 0.0 0.0 34.49183129400761" Properties=species:S:1:pos:R:3:initial_magmoms:R:1 pbc="T T T"
Si       1.35746199       1.34514675      -1.36705001       0.00000000
Si       1.32765129      -1.26258903       1.47814826       0.00000000
Si      -1.36096434      -1.36340784      -1.36470456       0.00000000
Si      -1.26912132       1.37458278       1.47797580       0.00000000
Si      -0.55270341      -2.22363387       2.63597070       0.00000000
Si       2.41184853       0.54620370       2.83174644       0.00000000
Si      -2.47472956      -0.29462094       2.81819114       0.00000000
Si       0.51531786       2.19605490       3.01520859       0.00000000
Si      -2.70140654       2.70676269       0.00882991       0.00000000
Si       0.00009774       2.70780525      -2.72233829       0.00000000
