10
Lattice="16.28999089631971 0.0 0.0 0.0 16.28999089631971 0.0 0.0 0.0 34.49183129400761" Properties=species:S:1:pos:R:3:initial_magmoms:R:1 pbc="T T T"
Si       1.35417141      -1.35281934      -1.35690940       0.00000000
Si      -1.35746199      -1.34514675       1.36705001       0.00000000
Si      -1.35736425       1.36265850      -1.35528828       0.00000000
Si       1.37616291       1.35413883       1.38226091       0.00000000
Si      -0.09589923       2.54896146       2.80291125       0.00000000
Si       2.71028133      -2.71127502       0.00482886       0.00000000
Si      -0.00224802      -2.71096551      -2.71374982       0.00000000
Si       2.71236645       0.00363267      -2.71343939       0.00000000
Si      -2.71842633      -2.70855459       0.00234545       0.00000000
Si       2.71186146       2.71865439       0.00348368       0.00000000
