10
Lattice="16.28999089631971 0.0 0.0 0.0 16.28999089631971 0.0 0.0 0.0 34.49183129400761" Properties=species:S:1:pos:R:3:initial_magmoms:R:1 pbc="T T T"
Si      -0.01438407      -2.28333672       0.80790262       0.00000000
Si      -1.55922993       1.39989744       1.58883260       0.00000000
Si       2.49943986      -1.29472920      -0.56904655       0.00000000
Si       0.16676073       1.08782991      -2.65687276       0.00000000
Si       2.06329140      -0.56202129      -2.84033491       0.00000000
Si      -2.28797937      -2.38295007       1.59445478       0.00000000
Si      -0.58977945       3.53282859       1.38677934       0.00000000
Si       3.60509103      -0.57404331       1.53899188       0.00000000
Si       2.75041989       1.34153037       2.64069608       0.00000000
Si       0.16434981      -3.92308160      -0.98736371       0.00000000
