10
Lattice="16.28999089631971 0.0 0.0 0.0 16.28999089631971 0.0 0.0 0.0 34.49183129400761" Properties=species:S:1:pos:R:3:initial_magmoms:R:1 pbc="T T T"
Si       1.64056590       0.28608498       1.66195533       0.00000000
Si      -1.86186555       1.20635595       0.80110772       0.00000000
Si       1.29477807       0.88040934      -1.80861468       0.00000000
Si      -0.80747901      -2.30946588       0.33633003       0.00000000
Si       0.07946262      -0.15205086       3.38368503       0.00000000
Si      -2.24806887       0.20351097       2.88755425       0.00000000
Si       2.14944921      -1.03516434      -2.91031888       0.00000000
Si      -3.68165403       0.53921529      -0.62033593       0.00000000
Si       3.38750550      -1.32877530       1.22087354       0.00000000
Si       0.67515534      -3.46092453       1.79454200       0.00000000
