10
Lattice="16.28999089631971 0.0 0.0 0.0 16.28999089631971 0.0 0.0 0.0 34.49183129400761" Properties=species:S:1:pos:R:3:initial_magmoms:R:1 pbc="T T T"
Si      -1.64056590      -0.28608498      -1.66195533       0.00000000
Si      -1.56110328      -0.43813584       1.72172970       0.00000000
Si       1.74693960      -1.61486028      -0.44108179       0.00000000
Si       0.78017697       2.28824001       0.30297642       0.00000000
Si      -0.95636961       1.36458072       3.02803956       0.00000000
Si      -0.81832815      -2.57057829       2.25680178       0.00000000
Si      -0.34578783       0.59432436      -3.47057000       0.00000000
Si       3.20973273      -0.22900482      -1.65971336       0.00000000
Si       2.70840798       1.77935670       1.62304852       0.00000000
Si      -1.05419106       3.17254266       1.54406218       0.00000000
