10
Lattice="16.28999089631971 0.0 0.0 0.0 16.28999089631971 0.0 0.0 0.0 34.49183129400761" Properties=species:S:1:pos:R:3:initial_magmoms:R:1 pbc="T T T"
Si       1.55747061      -1.76000418       0.06822488       0.00000000
Si      -0.95526189       1.29536451      -1.86652649       0.00000000
Si      -1.45753146      -1.99342359       0.01327936       0.00000000
Si       0.08850357       1.52200728       2.00683934       0.00000000
Si      -1.12295115      -2.48632641       2.37445349       0.00000000
Si       2.07054045      -2.08834542      -2.15167062       0.00000000
Si      -2.49248403       2.68100820      -0.45118790       0.00000000
Si      -3.63194509      -1.04798457       0.12082495       0.00000000
Si      -2.15205561       1.15114914       2.89759138       0.00000000
Si       1.25718075      -2.71948518       2.51790509       0.00000000
