10
Lattice="16.28999089631971 0.0 0.0 0.0 16.28999089631971 0.0 0.0 0.0 34.49183129400761" Properties=species:S:1:pos:R:3:initial_magmoms:R:1 pbc="T T T"
Si       1.91140344       0.10741626       1.26226376       0.00000000
Si       0.51306984      -0.32834124      -2.21989550       0.00000000
Si      -1.55747061       1.76000418      -0.06822488       0.00000000
Si      -0.30028986      -0.95948100       2.44968021       0.00000000
Si      -3.01500207      -0.23341941      -0.05494552       0.00000000
Si      -2.68042176      -0.72632223       2.30622860       0.00000000
Si       2.44454256       2.41899984       1.50663852       0.00000000
Si      -1.17763668      -1.47326760      -3.31677084       0.00000000
Si       1.63519020       1.40344866      -3.38427139       0.00000000
Si      -1.46896704       3.28201146       1.93861446       0.00000000
