10
Lattice="16.28999089631971 0.0 0.0 0.0 16.28999089631971 0.0 0.0 0.0 34.49183129400761" Properties=species:S:1:pos:R:3:initial_magmoms:R:1 pbc="T T T"
Si       0.68206230       1.63204623       1.61235605       0.00000000
Si      -2.38013190       0.23315877      -0.14345161       0.00000000
Si       0.96006744      -1.95813945       1.11046513       0.00000000
Si       0.30028986       0.95948100      -2.44968021       0.00000000
Si       2.21169330       1.06689726      -1.18741645       0.00000000
Si      -2.71471221       0.72606159      -2.50462573       0.00000000
Si       3.16693890      -1.15768143       1.67347561       0.00000000
Si      -1.20624192       2.15655165       2.95136418       0.00000000
Si      -3.34958238      -1.89977238       0.05860165       0.00000000
Si      -3.07242432       1.82741220       1.47763088       0.00000000
