10
Lattice="16.28999089631971 0.0 0.0 0.0 16.28999089631971 0.0 0.0 0.0 34.49183129400761" Properties=species:S:1:pos:R:3:initial_magmoms:R:1 pbc="T T T"
Si       0.09782145      -1.80796194       1.48397738       0.00000000
Si       1.83436803      -0.88430265      -1.24108577       0.00000000
Si      -1.89074772      -0.05204655      -1.48984099       0.00000000
Si       0.60334902       2.08277424       1.08004332       0.00000000
Si       2.38593114      -1.85202639       1.99835435       0.00000000
Si      -0.50691222      -3.61067850       0.17766752       0.00000000
Si       1.05419106      -3.17254266      -1.54406218       0.00000000
Si      -1.45790613       1.53647280      -3.17373314       0.00000000
Si       1.02024270       3.60878886      -0.71970695       0.00000000
Si      -3.91763097       0.25834311      -0.30632212       0.00000000
