10
Lattice="16.28999089631971 0.0 0.0 0.0 16.28999089631971 0.0 0.0 0.0 34.49183129400761" Properties=species:S:1:pos:R:3:initial_magmoms:R:1 pbc="T T T"
Si       1.35721764       1.35694618      -1.35801314       0.00000000
Si      -1.35744570      -1.35778779      -1.35773721       0.00000000
Si       1.35698958      -1.35912357       1.35773721       0.00000000
Si      -1.36011726       1.35775568       1.35928934       0.00000000
Si       2.71650411      -0.00244350       2.69878036       0.00000000
Si       2.71414206       2.71385277      -0.00031043       0.00000000
Si       2.71521720      -0.00083079      -2.71492254       0.00000000
Si      -0.00032580       2.71478130      -2.71540543       0.00000000
Si      -2.71463076       2.71573101      -0.00044839       0.00000000
Si       0.00001629      -2.71505430      -2.71537094       0.00000000
