10
Lattice="16.28999089631971 0.0 0.0 0.0 16.28999089631971 0.0 0.0 0.0 34.49183129400761" Properties=species:S:1:pos:R:3:initial_magmoms:R:1 pbc="T T T"
Si      -1.58625504      -1.21966488       1.31031091       0.00000000
Si       1.19296557      -1.49322285      -1.49618749       0.00000000
Si      -1.49698584       1.21207374      -1.49687733       0.00000000
Si       1.82226456       1.10872998       1.55140895       0.00000000
Si       2.75840199       2.60604148      -0.09526649       0.00000000
Si       2.55705759      -0.14980284      -2.87261928       0.00000000
Si       2.56166766      -2.87158491      -0.13920911       0.00000000
Si      -0.16004925       2.56707641      -2.87106715       0.00000000
Si      -2.72914515      -2.72565909      -0.16890659       0.00000000
Si      -2.87889912       2.60543500      -0.15717936       0.00000000
