10
Lattice="16.28999089631971 0.0 0.0 0.0 16.28999089631971 0.0 0.0 0.0 34.49183129400761" Properties=species:S:1:pos:R:3:initial_magmoms:R:1 pbc="T T T"
Si      -1.95237279       0.91939131       0.88306036       0.00000000
Si       1.54443861       1.54326573      -0.88112881       0.00000000
Si       1.08921456      -1.18718262       1.77826185       0.00000000
Si      -0.95193873      -1.65589479      -1.47204320       0.00000000
Si      -2.56873752      -1.15470036       1.93144016       0.00000000
Si      -0.63957798      -1.19213478       3.37902863       0.00000000
Si       1.77155379       3.03490260       0.96604775       0.00000000
Si       2.59892289      -2.14060374      -1.40668114       0.00000000
Si       0.83334753      -2.04252165      -2.96940342       0.00000000
Si       3.43720629       0.09730017      -1.41871880       0.00000000
