10
Lattice="16.28999089631971 0.0 0.0 0.0 16.28999089631971 0.0 0.0 0.0 34.49183129400761" Properties=species:S:1:pos:R:3:initial_magmoms:R:1 pbc="T T T"
Si      -0.28724450       1.19020116       2.00111369       0.00000000
Si       2.17679849       0.35684385      -0.82107850       0.00000000
Si       0.04734688      -2.22366549       0.81649109       0.00000000
Si      -1.67857929       1.11039645      -1.25615871       0.00000000
Si       3.61289231      -0.79164417       0.68466323       0.00000000
Si       2.56314842       2.67586870      -0.82580389       0.00000000
Si       2.31912422      -0.69563091      -2.92756480       0.00000000
Si       1.32461972      -3.57907494      -0.63809924       0.00000000
Si      -0.26317244       3.51913684       1.74073471       0.00000000
Si       1.36931948      -2.32046067       2.86875620       0.00000000
