10
Lattice="16.28999089631971 0.0 0.0 0.0 16.28999089631971 0.0 0.0 0.0 34.49183129400761" Properties=species:S:1:pos:R:3:initial_magmoms:R:1 pbc="T T T"
Si       0.09883143      -1.43176068      -1.94099440       0.00000000
Si       1.99896219       1.24020657      -0.73688390       0.00000000
Si      -2.21460921       1.17045279      -0.00731227       0.00000000
Si       0.42728670      -1.41823998       2.21434231       0.00000000
Si       1.11612564      -3.34389717       0.83035681       0.00000000
Si       1.28332620       2.06506701      -2.84481885       0.00000000
Si      -2.15239770      -2.02588956      -2.32826890       0.00000000
Si       0.48806469       0.00428427      -3.80983185       0.00000000
Si      -3.59050659      -0.30913533      -1.40895760       0.00000000
Si       2.78360262       2.45754198       1.08942510       0.00000000
