10
Lattice="16.28999089631971 0.0 0.0 0.0 16.28999089631971 0.0 0.0 0.0 34.49183129400761" Properties=species:S:1:pos:R:3:initial_magmoms:R:1 pbc="T T T"
Si       1.79667297       1.01768517      -1.04729193       0.00000000
Si       1.43883054      -1.26231210       1.35055945       0.00000000
Si      -1.27751067       1.47391920       1.31616418       0.00000000
Si      -0.89591742      -1.30401450      -1.76902635       0.00000000
Si       0.84251880       1.07474904      -3.15156320       0.00000000
Si      -2.48518611      -2.60466511      -0.20887230       0.00000000
Si       0.09954819      -2.60884024       2.69795945       0.00000000
Si      -2.61744462       0.10909413       2.69006082       0.00000000
Si       3.57197346      -0.70073064      -1.06335857       0.00000000
Si       2.79661833      -2.64739053       0.05502830       0.00000000
