10
Lattice="16.28999089631971 0.0 0.0 0.0 16.28999089631971 0.0 0.0 0.0 34.49183129400761" Properties=species:S:1:pos:R:3:initial_magmoms:R:1 pbc="T T T"
Si      -1.50923592       0.58465299       1.69320494       0.00000000
Si       1.24041834       1.48814526      -1.31979617       0.00000000
Si      -1.42519581      -1.33063480      -1.32472850       0.00000000
Si       0.64583334       0.78402630       2.94712168       0.00000000
Si       2.33820144      -0.88427333       2.54691274       0.00000000
Si       2.44664397      -0.00641174      -2.73309975       0.00000000
Si      -2.36133324      -2.82794630       0.32194693       0.00000000
Si      -0.26331156       2.69226948      -2.73037489       0.00000000
Si      -0.26702568      -2.72979905      -2.76103815       0.00000000
Si       2.25854334       3.17406252       0.00051738       0.00000000
