10
Lattice="16.28999089631971 0.0 0.0 0.0 16.28999089631971 0.0 0.0 0.0 34.49183129400761" Properties=species:S:1:pos:R:3:initial_magmoms:R:1 pbc="T T T"
Si      -1.24041834      -1.48814526       1.31979617       0.00000000
Si       1.01812500       1.68591726       1.32031355       0.00000000
Si       1.20622563      -1.49455700      -1.41330358       0.00000000
Si      -1.50372990       1.20412422      -1.41057872       0.00000000
Si      -2.68382637       2.55709017       0.12310141       0.00000000
Si       2.56450212      -0.14428053      -2.78145732       0.00000000
Si       2.63572200       2.72101644      -0.05811877       0.00000000
Si      -0.15398937       2.57230503      -2.77997417       0.00000000
Si      -0.67017060       3.38103837       1.61190765       0.00000000
Si       2.53785168      -2.84299093      -0.02031570       0.00000000
