10
Lattice="16.28999089631971 0.0 0.0 0.0 16.28999089631971 0.0 0.0 0.0 34.49183129400761" Properties=species:S:1:pos:R:3:initial_magmoms:R:1 pbc="T T T"
Si       1.89055224       0.38612676       1.40399078       0.00000000
Si      -1.69236810       1.66829962       0.40020894       0.00000000
Si      -0.41001930      -2.41603410      -0.37768576       0.00000000
Si       2.43198297       2.27348941       0.13745002       0.00000000
Si       0.35453556      -2.22289986      -2.68750152       0.00000000
Si      -2.33820144       0.88427333      -2.54691274       0.00000000
Si       2.51652807       1.12604299      -2.41870653       0.00000000
Si      -0.54692046      -2.76861486       2.52601068       0.00000000
Si       0.68916474       3.74014328      -0.33353620       0.00000000
Si      -3.52732257       0.25558521       1.57503586       0.00000000
