10
Lattice="16.28999089631971 0.0 0.0 0.0 16.28999089631971 0.0 0.0 0.0 34.49183129400761" Properties=species:S:1:pos:R:3:initial_magmoms:R:1 pbc="T T T"
Si      -1.01162529       1.73559850       1.30541307       0.00000000
Si       1.08763443      -1.57823451       1.48856480       0.00000000
Si       1.83495447       1.41271441      -1.17482692       0.00000000
Si      -1.70799021      -0.73924874      -1.83496645       0.00000000
Si      -0.32011479       1.21334110      -2.42874366       0.00000000
Si       1.31474961      -0.08659764       3.33574136       0.00000000
Si      -3.26054124       1.29560560       1.62760144       0.00000000
Si       3.52732257      -0.25558521      -1.57503586       0.00000000
Si      -0.23465745       1.65647797       3.51192573       0.00000000
Si      -0.55355049       3.87377503       0.35209281       0.00000000
