10
Lattice="16.28999089631971 0.0 0.0 0.0 16.28999089631971 0.0 0.0 0.0 34.49183129400761" Properties=species:S:1:pos:R:3:initial_magmoms:R:1 pbc="T T T"
Si      -1.35759231      -1.35747828       1.35690940       0.00000000
Si      -1.35402480       1.35544203      -1.36291098       0.00000000
Si       1.35798327       1.35775521       1.35694389       0.00000000
Si       1.35593073      -1.35749457      -1.36294548       0.00000000
Si      -0.01718595      -2.72694600      -2.69968749       0.00000000
Si       0.00024435      -2.71467963       2.71419821       0.00000000
Si       2.71503801      -0.00004887       2.71419821       0.00000000
Si       0.00022806       2.71523349       2.71447415       0.00000000
Si      -2.71518462       0.00013032       2.71454313       0.00000000
Si       2.71463076      -2.71513575      -0.00048289       0.00000000
