10
Lattice="16.28999089631971 0.0 0.0 0.0 16.28999089631971 0.0 0.0 0.0 34.49183129400761" Properties=species:S:1:pos:R:3:initial_magmoms:R:1 pbc="T T T"
Si       1.81956172       0.04790726       1.46731782       0.00000000
Si       0.02407206       2.32893569      -0.26037898       0.00000000
Si       0.28724450      -1.19020116      -2.00111369       0.00000000
Si      -1.20077436      -0.99551937       1.79088587       0.00000000
Si       0.73097596      -0.88088175       3.31514973       0.00000000
Si       2.36037343       2.51177465      -0.74919749       0.00000000
Si      -1.39133478      -0.07980471      -3.25727240       0.00000000
Si       0.33459139      -3.41386665      -1.18462261       0.00000000
Si       3.17295121      -1.69761741       0.89285604       0.00000000
Si       2.46404299      -0.83335730      -2.82219220       0.00000000
