10
Lattice="16.28999089631971 0.0 0.0 0.0 16.28999089631971 0.0 0.0 0.0 34.49183129400761" Properties=species:S:1:pos:R:3:initial_magmoms:R:1 pbc="T T T"
Si       1.59255927       1.59537744       0.71242917       0.00000000
Si      -1.92823101       0.50888331      -1.32007211       0.00000000
Si      -1.37666790      -0.45884043       1.91936801       0.00000000
Si       1.51975926      -1.43780427      -1.20904284       0.00000000
Si      -2.70840798      -1.77935670      -1.62304852       0.00000000
Si       3.33995499      -0.11820024      -1.79878450       0.00000000
Si       3.10436901       2.05855101      -1.00967994       0.00000000
Si       0.55853523       3.40974135       1.73331897       0.00000000
Si       0.50132475      -2.00836152      -3.28276188       0.00000000
Si      -3.66477759      -0.41477598       1.40499104       0.00000000
