10
Lattice="16.28999089631971 0.0 0.0 0.0 16.28999089631971 0.0 0.0 0.0 34.49183129400761" Properties=species:S:1:pos:R:3:initial_magmoms:R:1 pbc="T T T"
Si      -1.29213909      -1.91158752       0.02359243       0.00000000
Si       2.28367881      -0.19893348       0.53314053       0.00000000
Si      -0.67756626       1.47202956       1.70951959       0.00000000
Si      -0.75132738       0.55227987      -2.19292288       0.00000000
Si       0.48646827       2.49266322      -2.46409780       0.00000000
Si      -3.08762875       0.36944091      -1.70410437       0.00000000
Si       2.56639176       1.71579312       1.98545439       0.00000000
Si       0.06125040      -3.65711219      -0.55086935       0.00000000
Si       3.55677489       0.00465894      -1.43289495       0.00000000
Si      -0.12074148       3.69194931       1.04117100       0.00000000
