10
Lattice="16.28999089631971 0.0 0.0 0.0 16.28999089631971 0.0 0.0 0.0 34.49183129400761" Properties=species:S:1:pos:R:3:initial_magmoms:R:1 pbc="T T T"
Si      -1.35728280       1.35769005      -1.35759924       0.00000000
Si       1.35775521      -1.35747828      -1.35753025       0.00000000
Si      -1.35870003      -1.35589815       1.35825458       0.00000000
Si       1.35816246       1.35925389       1.35635753       0.00000000
Si       0.00485442       2.71213839       2.71412923       0.00000000
Si       2.71153566       0.00100998       2.71485356       0.00000000
Si      -0.00022806      -2.71523349      -2.71447415       0.00000000
Si       2.71471221       2.71511946      -0.00010348       0.00000000
Si       2.71541268      -0.00065160      -2.71447415       0.00000000
Si      -2.71505430       2.71494027      -0.00044839       0.00000000
