10
Lattice="16.28999089631971 0.0 0.0 0.0 16.28999089631971 0.0 0.0 0.0 34.49183129400761" Properties=species:S:1:pos:R:3:initial_magmoms:R:1 pbc="T T T"
Si       1.20531339       0.01516599       2.04909186       0.00000000
Si       1.88066421       0.74225385      -1.26792043       0.00000000
Si      -1.70776215       1.67695776      -0.13124149       0.00000000
Si      -0.78288111      -2.01005568      -1.21166422       0.00000000
Si       0.57593295       2.05667766      -2.73172007       0.00000000
Si      -2.15360316      -0.66399669      -2.70174666       0.00000000
Si       2.60428230       2.62327644      -0.03428490       0.00000000
Si       2.69247636      -1.84567329       1.80864917       0.00000000
Si      -0.83795760       3.35508840      -1.45700475       0.00000000
Si      -3.50404416       0.70218045      -1.33721455       0.00000000
