10
Lattice="16.28999089631971 0.0 0.0 0.0 16.28999089631971 0.0 0.0 0.0 34.49183129400761" Properties=species:S:1:pos:R:3:initial_magmoms:R:1 pbc="T T T"
Si      -1.34482095       1.32923142       1.42009847       0.00000000
Si       1.25687124      -1.62241884       1.23601547       0.00000000
Si       1.78411338       1.70735490      -0.36868339       0.00000000
Si      -1.59536115      -1.37772675      -1.77805490       0.00000000
Si      -1.70039907       2.88228744      -0.45660312       0.00000000
Si       0.46871217       2.67646329      -2.03460528       0.00000000
Si       1.45169964      -2.98006002      -0.81745686       0.00000000
Si       0.35997642      -2.15717067      -2.85899500       0.00000000
Si      -0.00009774       2.48595174       2.96061976       0.00000000
Si      -2.72767905      -0.08387721       2.81741305       0.00000000
