10
Lattice="16.28999089631971 0.0 0.0 0.0 16.28999089631971 0.0 0.0 0.0 34.49183129400761" Properties=species:S:1:pos:R:3:initial_magmoms:R:1 pbc="T T T"
Si       1.35571896       1.35702216      -1.35770271       0.00000000
Si      -1.35974259       1.35573525       1.35801314       0.00000000
Si      -1.35933534      -1.35804843      -1.35794416       0.00000000
Si       1.36057338      -1.36085031       1.35663347       0.00000000
Si      -0.00022806       2.71241532       2.69905629       0.00000000
Si       2.72484459      -0.01154961       2.69691780       0.00000000
Si       2.71287144      -0.00006516      -2.71450864       0.00000000
Si       2.71388142      -2.71373481      -0.00113823       0.00000000
Si       2.71409319       2.71433754      -0.00072433       0.00000000
Si      -0.00151497       2.71402803      -2.71464661       0.00000000
