10
Lattice="16.28999089631971 0.0 0.0 0.0 16.28999089631971 0.0 0.0 0.0 34.49183129400761" Properties=species:S:1:pos:R:3:initial_magmoms:R:1 pbc="T T T"
Si       1.33162605      -1.34843393       1.39298788       0.00000000
Si       1.35827649       1.35027647      -1.36815374       0.00000000
Si      -1.35806472      -1.36437777      -1.36998181       0.00000000
Si      -1.20622563       1.49455700       1.41330358       0.00000000
Si      -2.44664397       0.00641174       2.73309975       0.00000000
Si       2.40808554       0.24818141       2.86130596       0.00000000
Si      -2.70995553       2.69868122       0.00272486       0.00000000
Si       2.71676475       2.71451510       0.00282833       0.00000000
Si       0.00008145       2.70783620      -2.72640833       0.00000000
Si      -2.71366965      -2.72338731      -0.02793840       0.00000000
