10
Lattice="16.28999089631971 0.0 0.0 0.0 16.28999089631971 0.0 0.0 0.0 34.49183129400761" Properties=species:S:1:pos:R:3:initial_magmoms:R:1 pbc="T T T"
Si      -1.35680550      -1.35684297       1.35663347       0.00000000
Si       1.35707103      -1.35721764      -1.35715084       0.00000000
Si      -1.35769494       1.35747828      -1.35735780       0.00000000
Si       1.35969372       1.35896067       1.35825458       0.00000000
Si      -0.00136836      -2.71225242       2.71588831       0.00000000
Si       0.00171045      -2.71459818      -2.71423271       0.00000000
Si      -0.00076563       2.71441899      -2.71468110       0.00000000
Si       2.71480995      -2.71466334      -0.00020695       0.00000000
Si       2.71492398       2.71502172      -0.00017246       0.00000000
Si      -2.71502799      -2.71526607      -0.00006898       0.00000000
