10
Lattice="16.28999089631971 0.0 0.0 0.0 16.28999089631971 0.0 0.0 0.0 34.49183129400761" Properties=species:S:1:pos:R:3:initial_magmoms:R:1 pbc="T T T"
Si      -0.53335089       1.17182115       1.99045571       0.00000000
Si      -1.40439348       0.60603687      -1.82796460       0.00000000
Si      -0.64589850      -2.19856682       0.66665849       0.00000000
Si       2.30311997       0.32219991      -0.64092757       0.00000000
Si      -2.57277744      -1.50555438       1.97103680       0.00000000
Si      -2.06117370      -2.89612580      -1.10453253       0.00000000
Si       0.76950834       0.21017358       3.66355191       0.00000000
Si       3.59582921      -0.63309456       1.09701331       0.00000000
Si      -0.82818360       2.72951982      -2.57002228       0.00000000
Si       1.03268079      -3.30896327       1.92281719       0.00000000
