10
Lattice="16.28999089631971 0.0 0.0 0.0 16.28999089631971 0.0 0.0 0.0 34.49183129400761" Properties=species:S:1:pos:R:3:initial_magmoms:R:1 pbc="T T T"
Si      -0.57184416      -2.22946473       0.51078982       0.00000000
Si       1.20077436       0.99551937      -1.79088587       0.00000000
Si      -1.72734273       1.57140671       0.64610134       0.00000000
Si       1.93175032       0.11463762       1.52426386       0.00000000
Si       3.02033609       1.04342663      -0.32356805       0.00000000
Si      -1.15939188       1.39071802       2.93970593       0.00000000
Si       1.14629472       1.90251725       2.87320564       0.00000000
Si      -3.72452931       0.49880143       0.02600686       0.00000000
Si      -1.92464721      -2.13688866       2.46582240       0.00000000
Si       1.35535799      -3.63252243       0.52520741       0.00000000
