10
Lattice="16.28999089631971 0.0 0.0 0.0 16.28999089631971 0.0 0.0 0.0 34.49183129400761" Properties=species:S:1:pos:R:3:initial_magmoms:R:1 pbc="T T T"
Si      -1.38906459       1.24230798       1.48955126       0.00000000
Si      -2.01285756      -0.93564873      -0.90942489       0.00000000
Si       1.29207393      -1.48440996       1.45978824       0.00000000
Si       1.53920693       1.05024888      -1.74954190       0.00000000
Si      -2.65787640       2.65051332       0.12098362       0.00000000
Si       2.72331237       2.59515990      -0.08590195       0.00000000
Si      -0.05561406       2.58660765       2.84865090       0.00000000
Si       2.65986445      -0.12724119       2.84130413       0.00000000
Si       2.57922243      -2.96503738       0.04960618       0.00000000
Si      -3.78815805       0.78276708      -0.89335825       0.00000000
