10
Lattice="16.28999089631971 0.0 0.0 0.0 16.28999089631971 0.0 0.0 0.0 34.49183129400761" Properties=species:S:1:pos:R:3:initial_magmoms:R:1 pbc="T T T"
Si       1.33345053       1.34429967       1.35909963       0.00000000
Si      -1.26881181       1.40820534      -1.36856765       0.00000000
Si      -1.38381921      -1.37008674       1.35168389       0.00000000
Si       1.38906459      -1.24230798      -1.48955126       0.00000000
Si      -0.62379297      -2.17795671      -2.39897616       0.00000000
Si      -2.39909346      -0.45954090      -2.38290951       0.00000000
Si       2.69366553       2.68913691      -0.03329843       0.00000000
Si       2.68875333      -0.01150074       2.71411198       0.00000000
Si       2.68113852      -2.72671794      -0.02976302       0.00000000
Si      -0.02410920       2.70198972       2.71462936       0.00000000
