10
Lattice="16.28999089631971 0.0 0.0 0.0 16.28999089631971 0.0 0.0 0.0 34.49183129400761" Properties=species:S:1:pos:R:3:initial_magmoms:R:1 pbc="T T T"
Si       1.26881181      -1.40820534       1.36856765       0.00000000
Si       1.06572438       1.15914753      -1.75125270       0.00000000
Si      -1.47791025       1.30567608       1.33860113       0.00000000
Si      -1.13028165      -1.86774624      -1.01434186       0.00000000
Si       2.65787640      -2.65051332      -0.12098362       0.00000000
Si       2.60226234      -0.06390567       2.72766728       0.00000000
Si       0.64501884      -3.58616205      -1.03040851       0.00000000
Si       2.74983345       2.59063128      -0.26424207       0.00000000
Si      -0.11134215       2.65065993       2.72249350       0.00000000
Si      -0.11500740      -2.77829208       2.72025153       0.00000000
