10
Lattice="16.28999089631971 0.0 0.0 0.0 16.28999089631971 0.0 0.0 0.0 34.49183129400761" Properties=species:S:1:pos:R:3:initial_magmoms:R:1 pbc="T T T"
Si       1.35543714      -1.35540945       1.35925485       0.00000000
Si       1.35680550       1.35684297      -1.35663347       0.00000000
Si      -1.35822249      -1.35842310      -1.35670245       0.00000000
Si      -1.35724684       1.35449721       1.36194521       0.00000000
Si       2.71387653      -0.00037467      -2.71378431       0.00000000
Si      -0.00088943       2.71432125      -2.71399126       0.00000000
Si       2.71456071      -2.71453139       0.00072433       0.00000000
Si      -0.00047078      -2.71554626      -2.71430169       0.00000000
Si      -2.71412155      -2.71573196       0.00000000       0.00000000
Si      -0.01822851      -2.71452487       2.71568136       0.00000000
