10
Lattice="16.28999089631971 0.0 0.0 0.0 16.28999089631971 0.0 0.0 0.0 34.49183129400761" Properties=species:S:1:pos:R:3:initial_magmoms:R:1 pbc="T T T"
Si      -0.57620988      -2.12348295       0.74205767       0.00000000
Si      -0.36232218       1.40972031       1.85045329       0.00000000
Si      -1.37406150       0.25135470      -1.91505653       0.00000000
Si       2.14117782       0.41671449      -1.14685403       0.00000000
Si       1.39155696       2.57807169      -1.54678704       0.00000000
Si       1.92413475       1.32515892       2.65645886       0.00000000
Si      -0.40342185       2.05398981      -3.02114119       0.00000000
Si       1.70521181      -0.88402572      -3.28179611       0.00000000
Si      -1.95064605      -2.02401621      -2.58495725       0.00000000
Si       0.82818360      -2.72951982       2.57002228       0.00000000
