10
Lattice="16.28999089631971 0.0 0.0 0.0 16.28999089631971 0.0 0.0 0.0 34.49183129400761" Properties=species:S:1:pos:R:3:initial_magmoms:R:1 pbc="T T T"
Si       0.95156799      -0.47918664       2.11762717       0.00000000
Si       0.80492280      -1.23875676      -1.86376715       0.00000000
Si      -2.26106829      -0.76152492      -0.12689552       0.00000000
Si       0.71553825       2.07847368      -1.01809595       0.00000000
Si       3.21498530      -0.13616811       1.54985681       0.00000000
Si      -0.49793643      -0.27710919      -3.53686334       0.00000000
Si      -2.14726635      -2.99180511       0.83359904       0.00000000
Si      -2.76789906      -0.73189341      -2.52511389       0.00000000
Si       0.13672197       1.96590978      -3.31763314       0.00000000
Si       0.05431086       3.95381106       0.31573840       0.00000000
