10
Lattice="16.28999089631971 0.0 0.0 0.0 16.28999089631971 0.0 0.0 0.0 34.49183129400761" Properties=species:S:1:pos:R:3:initial_magmoms:R:1 pbc="T T T"
Si      -1.35582389       1.43562141      -1.46183361       0.00000000
Si       0.43596601       1.30074021       2.13494207       0.00000000
Si       1.43571752      -1.57957614      -1.43537836       0.00000000
Si       0.47002840      -2.61439839       0.96201220       0.00000000
Si      -1.91303963      -2.60664435       1.16782508       0.00000000
Si      -3.07927331       1.13538042       1.36673958       0.00000000
Si      -2.10863366       2.93801553       0.26065491       0.00000000
Si      -1.70521181       0.88402572       3.28179611       0.00000000
Si       2.64132576       0.08962758      -2.77559371       0.00000000
Si      -0.31365485       3.46209741       1.73500907       0.00000000
