10
Lattice="16.28999089631971 0.0 0.0 0.0 16.28999089631971 0.0 0.0 0.0 34.49183129400761" Properties=species:S:1:pos:R:3:initial_magmoms:R:1 pbc="T T T"
Si      -0.97063965      -1.80263511       1.10608466       0.00000000
Si       1.79497881       0.52408188       1.47435415       0.00000000
Si      -1.48716297       1.86083928       0.24044269       0.00000000
Si       0.75280977      -1.50239412      -1.72248853       0.00000000
Si       2.54459967      -1.63727532       1.87428716       0.00000000
Si       2.10863366      -2.93801553      -0.26065491       0.00000000
Si       0.40342185      -2.05398981       3.02114119       0.00000000
Si      -2.69247636       1.84567329      -1.80864917       0.00000000
Si       2.06913073      -0.08245998      -3.11188925       0.00000000
Si       3.26886447       1.85642469       0.29100774       0.00000000
