10
Lattice="16.28999089631971 0.0 0.0 0.0 16.28999089631971 0.0 0.0 0.0 34.49183129400761" Properties=species:S:1:pos:R:3:initial_magmoms:R:1 pbc="T T T"
Si      -1.20531339      -0.01516599      -2.04909186       0.00000000
Si       1.48716297      -1.86083928      -0.24044269       0.00000000
Si       0.84535326       2.26427742       0.23789029       0.00000000
Si      -0.88379766      -0.25717023       2.29015540       0.00000000
Si       0.67535082       0.72708786      -3.31701229       0.00000000
Si       1.39896891       2.60811045      -2.08337676       0.00000000
Si       3.28214178      -1.33675740       1.23391146       0.00000000
Si       0.51652332      -3.66347439       0.86564197       0.00000000
Si      -2.60454294      -1.95074379       2.07527117       0.00000000
Si       2.61936684       2.17254843       1.99111106       0.00000000
