10
Lattice="16.28999089631971 0.0 0.0 0.0 16.28999089631971 0.0 0.0 0.0 34.49183129400761" Properties=species:S:1:pos:R:3:initial_magmoms:R:1 pbc="T T T"
Si      -1.31540121       0.96910839      -1.66592189       0.00000000
Si       2.34438791      -0.62692065      -0.50685774       0.00000000
Si      -1.78411338      -1.70735490       0.36868339       0.00000000
Si      -0.36847980       1.89003096       1.84762496       0.00000000
Si      -3.12893433      -0.37812348       1.78878186       0.00000000
Si       3.06729690      -0.95540850       1.78153857       0.00000000
Si      -3.48451245       1.17493254      -0.08791973       0.00000000
Si      -1.97293077       3.11707521       0.48678349       0.00000000
Si      -0.52724214      -3.32977374       1.60469886       0.00000000
Si       1.15686693      -1.89828999       3.09170949       0.00000000
