10
Lattice="16.28999089631971 0.0 0.0 0.0 16.28999089631971 0.0 0.0 0.0 34.49183129400761" Properties=species:S:1:pos:R:3:initial_magmoms:R:1 pbc="T T T"
Si       0.96945048       2.13293115      -0.20205326       0.00000000
Si      -0.66678228      -0.39956112       2.24014222       0.00000000
Si      -2.26380827       0.07757298      -0.87240238       0.00000000
Si       1.55922993      -1.39989744      -1.58883260       0.00000000
Si       0.63487017       2.62583397      -2.56322738       0.00000000
Si      -1.27368252      -2.74646142       2.20354637       0.00000000
Si       1.15300620       0.26757954       3.66158587       0.00000000
Si       3.34958238       1.89977238      -0.05860165       0.00000000
Si      -0.72874944      -3.78284751       0.00562217       0.00000000
Si      -3.01342913       2.23893018      -1.27233538       0.00000000
