10
Lattice="16.28999089631971 0.0 0.0 0.0 16.28999089631971 0.0 0.0 0.0 34.49183129400761" Properties=species:S:1:pos:R:3:initial_magmoms:R:1 pbc="T T T"
Si      -1.64858058      -1.04818005      -1.34787254       0.00000000
Si       1.08553302       1.75232752      -1.19952309       0.00000000
Si      -0.76455486      -0.19313424       2.30981576       0.00000000
Si       1.79365932      -1.77999201       0.07484732       0.00000000
Si       1.24004367      -2.12382504       2.39611437       0.00000000
Si      -0.35453556       2.22289986       2.68750152       0.00000000
Si      -0.23469003      -2.34659079      -2.62258786       0.00000000
Si       2.47410891       0.38213082      -2.59237300       0.00000000
Si      -3.03020064      -1.15996203       1.75929133       0.00000000
Si      -2.51838513      -2.72631069      -0.02210928       0.00000000
