10
Lattice="16.28999089631971 0.0 0.0 0.0 16.28999089631971 0.0 0.0 0.0 34.49183129400761" Properties=species:S:1:pos:R:3:initial_magmoms:R:1 pbc="T T T"
Si       1.31540121      -0.96910839       1.66592189       0.00000000
Si       0.58901382       2.25080559      -0.30570127       0.00000000
Si       0.13154175      -1.02653064      -2.12538783       0.00000000
Si      -2.16911124       0.20582415       1.57800216       0.00000000
Si      -0.65752956       2.14796682       2.15270538       0.00000000
Si      -0.46871217      -2.67646329       2.03460528       0.00000000
Si      -1.42060203       3.20922774      -1.06517733       0.00000000
Si       1.94181687       2.15822952      -2.26073385       0.00000000
Si       0.94692141       0.92092257       3.51354685       0.00000000
Si       0.71832384       0.76598838      -3.66669067       0.00000000
