10
Lattice="16.28999089631971 0.0 0.0 0.0 16.28999089631971 0.0 0.0 0.0 34.49183129400761" Properties=species:S:1:pos:R:3:initial_magmoms:R:1 pbc="T T T"
Si       0.66678228       0.39956112      -2.24014222       0.00000000
Si      -1.81406906       1.38557853       0.69076829       0.00000000
Si       1.81978848       0.66714066       1.42144365       0.00000000
Si      -0.60690024      -2.34690030      -0.03659585       0.00000000
Si      -1.59702599       0.47713410      -3.11254460       0.00000000
Si      -1.19326042       3.56524569       0.02090206       0.00000000
Si       3.68165403      -0.53921529       0.62033593       0.00000000
Si       0.68580900      -3.30219477       1.70134502       0.00000000
Si       1.43358516      -0.33570432       3.50789019       0.00000000
Si       1.63623276       2.53249227      -2.44219548       0.00000000
