10
Lattice="16.28999089631971 0.0 0.0 0.0 16.28999089631971 0.0 0.0 0.0 34.49183129400761" Properties=species:S:1:pos:R:3:initial_magmoms:R:1 pbc="T T T"
Si       1.35675931       1.35671721       1.35690940       0.00000000
Si      -1.35777112       1.35571537      -1.35922036       0.00000000
Si      -1.35869965      -1.35882972       1.35690940       0.00000000
Si       1.36082530      -1.36080081      -1.36280751       0.00000000
Si      -2.68996732      -0.01812263      -2.72204856       0.00000000
Si       2.71340029      -0.00060034       2.71471559       0.00000000
Si      -0.00099239       2.71384037       2.71450864       0.00000000
Si      -0.00106584      -2.71560753       2.71454313       0.00000000
Si       2.71574605       2.71450826       0.00034492       0.00000000
Si      -2.71601503      -0.00094551       2.71437067       0.00000000
