10
Lattice="16.28999089631971 0.0 0.0 0.0 16.28999089631971 0.0 0.0 0.0 34.49183129400761" Properties=species:S:1:pos:R:3:initial_magmoms:R:1 pbc="T T T"
Si      -0.57713841      -2.01401415       1.02823656       0.00000000
Si       2.25122913       0.59412888       0.38727450       0.00000000
Si      -0.51147342       0.25361901      -2.29957168       0.00000000
Si      -1.43810889       1.71675423       0.91931129       0.00000000
Si       0.13193271      -3.34055772      -0.73150317       0.00000000
Si       0.57907692       2.25710982      -2.66194306       0.00000000
Si      -2.91829553      -1.72291185       1.02558068       0.00000000
Si      -2.84581201       0.60057972      -2.15118774       0.00000000
Si       2.64046239       2.03017383      -1.48156295       0.00000000
Si       2.15239770       2.02588956       2.32826890       0.00000000
