10
Lattice="16.28999089631971 0.0 0.0 0.0 16.28999089631971 0.0 0.0 0.0 34.49183129400761" Properties=species:S:1:pos:R:3:initial_magmoms:R:1 pbc="T T T"
Si       0.72290899      -0.32848785       2.28839632       0.00000000
Si      -2.34438791       0.62692065       0.50685774       0.00000000
Si      -0.00462263      -2.04165828      -1.47949344       0.00000000
Si       1.47556400       1.39800780      -1.58576283       0.00000000
Si       2.33653448      -2.33276058      -1.47683757       0.00000000
Si       2.91367289      -0.31874643      -2.50507412       0.00000000
Si      -1.18752098      -1.27136934       3.59856723       0.00000000
Si       2.85146138       2.87759592      -0.18411750       0.00000000
Si       2.53336655      -2.07272331       2.40553064       0.00000000
Si       0.20922990       2.35120086      -3.40538041       0.00000000
