10
Lattice="16.28999089631971 0.0 0.0 0.0 16.28999089631971 0.0 0.0 0.0 34.49183129400761" Properties=species:S:1:pos:R:3:initial_magmoms:R:1 pbc="T T T"
Si       1.84407687      -0.62042094      -1.22804785       0.00000000
Si      -0.24151554      -0.72480726       2.19561324       0.00000000
Si      -2.06775486      -0.45320409      -0.99805619       0.00000000
Si       0.22051773       2.33422668       0.32470628       0.00000000
Si      -2.02305510       0.80541018       2.50879924       0.00000000
Si      -3.34502770       0.90220536       0.45653413       0.00000000
Si       2.46044160       1.45367073      -2.27642765       0.00000000
Si      -0.50666787       2.61845460       2.53401279       0.00000000
Si       2.42292573       2.79399564      -0.31780791       0.00000000
Si       1.29508758      -2.73017142      -2.23448556       0.00000000
