10
Lattice="16.290000149 0.0 0.0 0.0 16.290000149 0.0 0.0 0.0 29.1751946751" Properties=species:S:1:pos:R:3:initial_magmoms:R:1 pbc="T T T"
Si      -1.38290698       1.37028223       1.24038340       0.00000000
Si      -1.41988528      -1.31022100      -1.31022882       0.00000000
Si       1.33977106       1.44943534      -1.25184925       0.00000000
Si       1.29660256      -1.31851261       1.44997800       0.00000000
Si      -0.03935664      -2.65540034      -2.63101906       0.00000000
Si       2.68495040       0.08441478      -2.60088108       0.00000000
Si      -2.78052384       0.05561406       2.50687860       0.00000000
Si       2.68649795      -2.65818593       0.11848047       0.00000000
Si      -0.15905556       2.50996322       2.86287433       0.00000000
Si      -0.04720842       2.79314859      -2.59726336       0.00000000
