10
Lattice="16.290000149 0.0 0.0 0.0 16.290000149 0.0 0.0 0.0 29.1751946751" Properties=species:S:1:pos:R:3:initial_magmoms:R:1 pbc="T T T"
Si       1.32698341       1.38144088      -1.37711587       0.00000000
Si       1.34814412      -1.36228384       1.37692331       0.00000000
Si      -1.36384768       1.34785090       1.39056855       0.00000000
Si      -1.39036780      -1.37865529      -1.34050100       0.00000000
Si       2.52763787      -0.08905743      -2.80932618       0.00000000
Si      -2.64813500      -2.74766691       0.08485314       0.00000000
Si      -2.84350098       0.03764619      -2.55736919       0.00000000
Si       2.72023454       0.04393413       2.68897266       0.00000000
Si      -0.07359822       2.80649010      -2.59894385       0.00000000
Si       2.63381609       2.82830241      -0.00516401       0.00000000
