10
Lattice="16.290000149 0.0 0.0 0.0 16.290000149 0.0 0.0 0.0 29.1751946751" Properties=species:S:1:pos:R:3:initial_magmoms:R:1 pbc="T T T"
Si       1.07417890      -1.41581278      -1.50488572       0.00000000
Si      -1.54603504       1.31828455      -1.18991031       0.00000000
Si      -1.05287158      -1.76863790       1.17896962       0.00000000
Si       2.13250763       0.97138900       0.67286751       0.00000000
Si       0.21629862       0.80189155       3.38397248       0.00000000
Si       2.37245933      -2.70223409      -0.05852544       0.00000000
Si      -0.20662236       2.69772176      -2.50591582       0.00000000
Si      -1.40377447      -0.88537780       3.31331016       0.00000000
Si       2.47179575      -0.10114461      -2.77138092       0.00000000
Si       0.53515908      -3.55625364       1.08540477       0.00000000
