10
Lattice="16.290000149 0.0 0.0 0.0 16.290000149 0.0 0.0 0.0 29.1751946751" Properties=species:S:1:pos:R:3:initial_magmoms:R:1 pbc="T T T"
Si       1.69324778      -1.66695572      -0.25166523       0.00000000
Si      -1.86815351      -0.81226828      -1.26302335       0.00000000
Si       0.71457715       1.84624346      -1.41464684       0.00000000
Si      -0.62765371       0.35715825       2.33057290       0.00000000
H        2.20516103       0.83277739       1.10789884       0.00000000
H       -1.03625578       2.52993476       0.07524283       0.00000000
H       -2.60791499      -0.24259068       1.23942062       0.00000000
H        0.60316984      -1.58700439       2.54962026       0.00000000
H       -0.48296592       2.28723005      -2.24952421       0.00000000
H       -3.25343883       0.18818208       1.19341134       0.00000000
