10
Lattice="16.290000149 0.0 0.0 0.0 16.290000149 0.0 0.0 0.0 29.1751946751" Properties=species:S:1:pos:R:3:initial_magmoms:R:1 pbc="T T T"
Si      -1.47250198       1.81379378      -0.11188687       0.00000000
Si       1.13831263      -1.10941417      -1.75194127       0.00000000
Si      -1.66040714      -1.51855381       0.73457305       0.00000000
Si       1.86815351       0.81226828       1.26302335       0.00000000
H       -0.73976149       0.56967760       2.50244397       0.00000000
H       -1.38528532       1.00045036       2.45643469       0.00000000
H        1.38518758       3.09949833      -0.98650086       0.00000000
Si       2.48176523      -2.52552017      -0.38257433       0.00000000
H        0.83189773       3.34220304       1.33826618       0.00000000
Si       2.58273065       2.65851173      -0.15162349       0.00000000
