10
Lattice="16.290000149 0.0 0.0 0.0 16.290000149 0.0 0.0 0.0 29.1751946751" Properties=species:S:1:pos:R:3:initial_magmoms:R:1 pbc="T T T"
Si      -2.24694488       0.49909302      -0.28165733       0.00000000
Si       0.93692262      -0.81149450      -1.99161549       0.00000000
Si       0.28425122      -1.83034849       1.56443229       0.00000000
Si       1.33393761       1.97688926       0.48232432       0.00000000
Si       2.96683257       0.79060258       1.69355236       0.00000000
Si       1.63065019      -0.61611550       3.04621417       0.00000000
Si       2.77322592      -1.99407521      -1.06623666       0.00000000
Si      -0.94095928      -1.69797025      -3.09726784       0.00000000
H       -1.97705216      -0.57549313      -3.07171037       0.00000000
Si      -2.97689979       1.13595058       1.89685358       0.00000000
