10
Lattice="16.290000149 0.0 0.0 0.0 16.290000149 0.0 0.0 0.0 29.1751946751" Properties=species:S:1:pos:R:3:initial_magmoms:R:1 pbc="T T T"
H       -0.59823397      -0.08892711      -1.40151800       0.00000000
Si      -1.71654248       0.44312058       1.52268259       0.00000000
Si       0.47930067      -2.03030417       1.05698813       0.00000000
Si       1.89656327       1.49881033       0.32235673       0.00000000
H        1.51804882      -0.84167173      -1.71450949       0.00000000
Si       0.79389316      -0.92584216      -3.03471622       0.00000000
Si      -2.56137446       2.28679022       0.39558646       0.00000000
Si      -0.33787089       1.47043315       3.15590998       0.00000000
Si       2.07208802      -1.21870378       2.62048681       0.00000000
Si       0.92532088       2.95557618       1.83106439       0.00000000
