10
Lattice="16.290000149 0.0 0.0 0.0 16.290000149 0.0 0.0 0.0 29.1751946751" Properties=species:S:1:pos:R:3:initial_magmoms:R:1 pbc="T T T"
Si      -1.39018861       1.29099880      -1.35731758       0.00000000
Si      -1.37344249      -1.31422834       1.35988500       0.00000000
Si       1.44554203      -1.36363591      -1.23075559       0.00000000
Si       0.87721651       1.88556752       1.06857068       0.00000000
Si      -2.42564618       0.15524370       2.83862974       0.00000000
Si       0.06307488      -2.71282259      -2.57205599       0.00000000
Si      -2.56947059       2.74509309       0.05654153       0.00000000
Si      -0.00534312       2.62519868      -2.69794695       0.00000000
Si       2.78806611      -0.02534724      -2.59694243       0.00000000
Si      -2.73843048      -0.05167188      -2.67154340       0.00000000
