10
Lattice="16.290000149 0.0 0.0 0.0 16.290000149 0.0 0.0 0.0 29.1751946751" Properties=species:S:1:pos:R:3:initial_magmoms:R:1 pbc="T T T"
Si       1.24019029      -1.39105198       1.37082570       0.00000000
Si      -1.36122499       1.34752510       1.33266454       0.00000000
Si      -1.29469663      -1.43589835      -1.31270871       0.00000000
Si       1.45689616       1.29886687      -1.30249739       0.00000000
Si       2.67879278      -0.06092460       2.58101277       0.00000000
Si      -2.64870515      -0.06957459      -2.65009963       0.00000000
Si       0.09386298       2.62550819      -2.68239657       0.00000000
Si       0.02037879       2.69746112       2.62944360       0.00000000
Si      -2.60193656      -2.78462077       0.10891100       0.00000000
Si       0.12974985      -2.79664931      -2.61138415       0.00000000
