10
Lattice="16.290000149 0.0 0.0 0.0 16.290000149 0.0 0.0 0.0 29.1751946751" Properties=species:S:1:pos:R:3:initial_magmoms:R:1 pbc="T T T"
Si      -1.32204754      -1.32655987       1.36360425       0.00000000
Si       1.26384174      -1.42535872      -1.32731731       0.00000000
Si      -1.14049549       1.50014611      -1.38310028       0.00000000
Si       1.50646826       1.38554596       1.16541132       0.00000000
Si       1.94443958       0.33609528      -2.83558735       0.00000000
H       -2.32319837       0.95915521      -2.43180266       0.00000000
Si       0.52819022       2.28380915      -2.83068592       0.00000000
Si       0.10538001       2.73443943       2.53385632       0.00000000
Si       0.12849748      -2.71125875       2.58918708       0.00000000
Si      -2.58007538       0.07509690       2.72727619       0.00000000
