10
Lattice="16.290000149 0.0 0.0 0.0 16.290000149 0.0 0.0 0.0 29.1751946751" Properties=species:S:1:pos:R:3:initial_magmoms:R:1 pbc="T T T"
Si       0.84831805      -1.87519079      -1.11475501       0.00000000
Si       1.48814038       1.25240779       1.37485187       0.00000000
Si      -1.38898315       1.31499397      -1.42929279       0.00000000
Si      -1.31163823      -1.36708939       1.48472566       0.00000000
H        1.38595321      -1.61683138      -2.49908883       0.00000000
H        2.65945655       0.13677084      -2.07625273       0.00000000
Si       0.00726534       2.55153416       2.71513114       0.00000000
Si      -2.79469614       2.49618188       0.04294589       0.00000000
H       -0.21170484      -0.77419855      -3.66770125       0.00000000
Si       2.53716752      -2.80217325       0.19877060       0.00000000
