10
Lattice="16.290000149 0.0 0.0 0.0 16.290000149 0.0 0.0 0.0 29.1751946751" Properties=species:S:1:pos:R:3:initial_magmoms:R:1 pbc="T T T"
Si       1.36018243      -1.35383585       1.35154089       0.00000000
Si      -1.36256077       1.36375972       1.34474307       0.00000000
Si       1.34972425       1.38708700      -1.33584464       0.00000000
Si      -1.34662915      -1.38811001      -1.33925814       0.00000000
Si      -2.78071932      -0.04180340      -2.60091025       0.00000000
Si      -0.00009774      -2.71686903       2.69324975       0.00000000
Si       2.79282279       0.05569877      -2.61780269       0.00000000
Si      -0.00332316       2.70711458       2.70888765       0.00000000
Si      -2.72800487       0.01716966       2.69322057       0.00000000
Si      -0.02744865       2.72757482      -2.69427088       0.00000000
