10
Lattice="16.290000149 0.0 0.0 0.0 16.290000149 0.0 0.0 0.0 29.1751946751" Properties=species:S:1:pos:R:3:initial_magmoms:R:1 pbc="T T T"
Si       1.35853551      -1.34029234       1.38016759       0.00000000
Si      -1.50646826      -1.38554596      -1.16541132       0.00000000
Si      -1.40108825       1.34889346       1.36844500       0.00000000
Si       1.48693329       1.19925352      -1.43649906       0.00000000
Si      -2.64696375       0.11460015      -2.54851161       0.00000000
Si      -0.24262652      -2.81090469      -2.49272863       0.00000000
Si       2.66004137       2.66652641       0.01412955       0.00000000
Si       0.13088526       2.60744258      -2.75084158       0.00000000
Si      -0.01585180      -2.70119153       2.74182645       0.00000000
Si       2.67856310       0.00061902       2.77461936       0.00000000
