10
Lattice="16.290000149 0.0 0.0 0.0 16.290000149 0.0 0.0 0.0 29.1751946751" Properties=species:S:1:pos:R:3:initial_magmoms:R:1 pbc="T T T"
Si      -1.36544410      -1.34659006       1.34847750       0.00000000
Si      -1.36301689       1.36484137      -1.33517361       0.00000000
Si       1.35923761       1.34335486       1.36414458       0.00000000
Si       1.36256077      -1.36375972      -1.34474307       0.00000000
Si       0.00962739      -2.69236235       2.68227987       0.00000000
Si       2.71228502       0.02332728      -2.68058771       0.00000000
Si       0.00768888       2.72261288      -2.67308969       0.00000000
Si      -2.74843254       0.01418859      -2.65969827       0.00000000
Si      -0.00162900       2.69431715       2.71813619       0.00000000
Si       2.71526609       2.71731863       0.00510566       0.00000000
