10
Lattice="16.290000149 0.0 0.0 0.0 16.290000149 0.0 0.0 0.0 29.1751946751" Properties=species:S:1:pos:R:3:initial_magmoms:R:1 pbc="T T T"
Si       1.19754307      -0.44098659       0.83487737       0.00000000
H       -0.84911626       0.80839126      -1.47536042       0.00000000
H        0.60362596       1.84497284      -1.02798798       0.00000000
H       -0.55328986       0.24270471       2.32476704       0.00000000
Si      -1.87512563       0.71162866       1.73466955       0.00000000
H        1.69008752       2.04315698      -0.25948418       0.00000000
Si      -1.65807767      -0.03999195      -2.42183291       0.00000000
Si       2.53073297      -1.49371156      -0.80894062       0.00000000
Si      -1.61896537       2.74813932       0.54303790       0.00000000
Si       0.48296592      -2.28723005       2.24952421       0.00000000
