10
Lattice="16.290000149 0.0 0.0 0.0 16.290000149 0.0 0.0 0.0 29.1751946751" Properties=species:S:1:pos:R:3:initial_magmoms:R:1 pbc="T T T"
Si       1.36897903      -1.34838847       1.34100865       0.00000000
Si       1.37995849       1.34374582      -1.33464846       0.00000000
Si      -1.35068536       1.37691226       1.34818575       0.00000000
Si      -1.38013768      -1.34431597      -1.35658820       0.00000000
Si      -0.05413167       2.69005243      -2.59630057       0.00000000
Si      -0.00684180      -2.69171075       2.68146297       0.00000000
Si      -2.73344574       0.02288745       2.67580298       0.00000000
Si       2.72648990       0.01498680       2.69785943       0.00000000
Si       2.72460026      -2.70106121      -0.02447799       0.00000000
Si      -0.04411332      -2.78575293      -2.64548995       0.00000000
