10
Lattice="16.290000149 0.0 0.0 0.0 16.290000149 0.0 0.0 0.0 29.1751946751" Properties=species:S:1:pos:R:3:initial_magmoms:R:1 pbc="T T T"
Si      -1.34833960      -1.36155079      -1.35034471       0.00000000
Si       1.34252407      -1.38274408       1.34442215       0.00000000
Si      -1.38864106       1.35089713       1.33246032       0.00000000
Si       1.34825815       1.34801380      -1.37771104       0.00000000
Si       2.71023248      -0.02484225       2.67338144       0.00000000
Si      -0.03717378       2.73628019       2.65511777       0.00000000
Si      -2.69131165      -0.00327429      -2.71375991       0.00000000
Si       2.71360451       2.70335810      -0.03086736       0.00000000
Si       0.01066995      -2.71684622      -2.70433632       0.00000000
Si      -0.03233565      -2.71992503       2.70567838       0.00000000
