10
Lattice="16.290000149 0.0 0.0 0.0 16.290000149 0.0 0.0 0.0 29.1751946751" Properties=species:S:1:pos:R:3:initial_magmoms:R:1 pbc="T T T"
H       -1.13090068       0.06125040       1.00569814       0.00000000
Si       0.22245624      -2.13456017      -0.91245421       0.00000000
Si       2.07014951       0.69274855       0.88969756       0.00000000
Si      -0.22771791       1.50982237      -1.83794974       0.00000000
H       -0.45897075       0.98155396       2.62465886       0.00000000
H       -2.05662881       1.82418680       1.45604644       0.00000000
Si       2.34890399      -1.55274652      -1.91333844       0.00000000
H        2.43612065      -2.36608994       0.65498312       0.00000000
Si       3.33146793       0.44458668      -1.05328288       0.00000000
Si       1.72418249       2.80890102       1.83179377       0.00000000
