10
Lattice="16.290000149 0.0 0.0 0.0 16.290000149 0.0 0.0 0.0 29.1751946751" Properties=species:S:1:pos:R:3:initial_magmoms:R:1 pbc="T T T"
Si      -2.05516271       0.60862536      -0.89241085       0.00000000
Si       1.03016332      -1.62298900      -1.31548035       0.00000000
Si      -0.52377237      -1.25167474       1.93411118       0.00000000
Si       1.51304779       1.85113046       0.07290881       0.00000000
Si       2.32846004      -0.17478502      -2.58824822       0.00000000
Si      -3.29509236      -1.17866296      -0.04717629       0.00000000
Si       2.57496032      -2.57802284       0.20985718       0.00000000
Si       0.77804299       3.17322687      -1.71970267       0.00000000
Si      -2.13638465       0.27355634       3.00982978       0.00000000
Si       0.89329474       2.92073187       2.12004470       0.00000000
