10
Lattice="16.290000149 0.0 0.0 0.0 16.290000149 0.0 0.0 0.0 29.1751946751" Properties=species:S:1:pos:R:3:initial_magmoms:R:1 pbc="T T T"
Si      -1.34620561      -1.33003779       1.34676783       0.00000000
Si       1.31562928      -1.32305915      -1.40068943       0.00000000
Si      -1.20277216       1.39712815      -1.44132756       0.00000000
Si       1.42830721       1.40403511       1.24267074       0.00000000
Si       2.30412278       0.46410210      -2.55346264       0.00000000
Si       0.67103398       2.19944324      -2.63745831       0.00000000
Si      -2.64740195      -2.65728998      -0.07881387       0.00000000
Si      -2.70233183       0.06507855       2.63619474       0.00000000
Si       2.69811272      -2.64737426      -0.03477391       0.00000000
Si       0.05053158       2.75278197       2.59342390       0.00000000
