10
Lattice="16.290000149 0.0 0.0 0.0 16.290000149 0.0 0.0 0.0 29.1751946751" Properties=species:S:1:pos:R:3:initial_magmoms:R:1 pbc="T T T"
Si       0.84483199      -1.84366964       1.12709612       0.00000000
Si      -1.72146206       0.75973303       1.37791527       0.00000000
Si      -1.07448841      -0.08737956      -2.10090577       0.00000000
Si       1.79784587       1.59576841       0.12195231       0.00000000
H        2.33548103       1.85412782      -1.26238150       0.00000000
H       -1.15543342      -3.01588176      -1.06162698       0.00000000
H        1.66355111       0.93382426      -2.88134223       0.00000000
Si       2.56137446      -2.28679022      -0.39558646       0.00000000
Si      -0.36211041       2.10386981       2.72143298       0.00000000
Si      -0.62022547       2.12327120      -2.70634941       0.00000000
