10
Lattice="16.290000149 0.0 0.0 0.0 16.290000149 0.0 0.0 0.0 29.1751946751" Properties=species:S:1:pos:R:3:initial_magmoms:R:1 pbc="T T T"
Si      -1.35971002       1.35707430       1.34013339       0.00000000
Si       1.34873056       1.37346204      -1.33707000       0.00000000
Si       1.38245086      -1.35942983       1.32146127       0.00000000
Si      -1.35542575      -1.37194055      -1.33817865       0.00000000
Si       2.67900455      -0.04628966      -2.62302505       0.00000000
Si      -0.00030951      -2.71345465       2.64907850       0.00000000
Si      -2.72600121      -0.01134273      -2.65152922       0.00000000
Si       0.01337409       2.70448537       2.68333018       0.00000000
Si       2.73171900       0.01268339       2.67110577       0.00000000
Si      -2.70451469       0.00212422       2.70564920       0.00000000
