10
Lattice="16.290000149 0.0 0.0 0.0 16.290000149 0.0 0.0 0.0 29.1751946751" Properties=species:S:1:pos:R:3:initial_magmoms:R:1 pbc="T T T"
Si      -1.37863900      -1.36363591      -1.30451048       0.00000000
Si      -1.38657223       1.31349529       1.35749263       0.00000000
Si       1.32893821      -1.36893016       1.37368487       0.00000000
Si       1.32480055       1.38697948      -1.38252495       0.00000000
Si      -2.69562035       0.02777445      -2.64592758       0.00000000
Si      -0.01601307       2.67457367       2.68333018       0.00000000
Si       2.68943015      -0.00648342       2.70316931       0.00000000
Si      -0.05121576      -2.72243369      -2.67043474       0.00000000
Si       2.75002896       0.02673189      -2.65234612       0.00000000
Si       2.69531084      -2.71526609       0.02535324       0.00000000
