10
Lattice="16.290000149 0.0 0.0 0.0 16.290000149 0.0 0.0 0.0 29.1751946751" Properties=species:S:1:pos:R:3:initial_magmoms:R:1 pbc="T T T"
Si       1.37055916       1.36107838       1.32583755       0.00000000
Si       1.38657223      -1.31349529      -1.35749263       0.00000000
Si      -1.35490447       1.37108044      -1.33847041       0.00000000
Si      -1.35545833      -1.35448093       1.35950572       0.00000000
Si       0.00793323      -2.67713120      -2.66200311       0.00000000
Si      -0.00996948       2.70625772       2.64662778       0.00000000
Si       0.02554272       2.68921838      -2.70112705       0.00000000
Si       2.71551044      -2.68242545       0.01619223       0.00000000
Si      -2.73310364       0.01156590       2.67221443       0.00000000
Si      -2.73373895      -2.68988627       0.01517110       0.00000000
