10
Lattice="16.290000149 0.0 0.0 0.0 16.290000149 0.0 0.0 0.0 29.1751946751" Properties=species:S:1:pos:R:3:initial_magmoms:R:1 pbc="T T T"
Si       1.29916009       1.48447513      -1.27391387       0.00000000
Si       1.37394748      -1.35141841       1.36095865       0.00000000
Si      -1.38429163       1.37122705       1.35107993       0.00000000
Si      -1.17310807      -1.46727289      -1.45062861       0.00000000
Si       2.60529230       0.05810643      -2.57474886       0.00000000
Si      -2.52915610      -0.05908383      -2.76497113       0.00000000
Si      -2.66004137      -2.66652641      -0.01412955       0.00000000
Si       0.01852173      -2.66590739       2.76048982       0.00000000
Si       2.71769330       0.01816335       2.72390412       0.00000000
Si      -0.02169828       2.73891918       2.71424713       0.00000000
