10
Lattice="16.290000149 0.0 0.0 0.0 16.290000149 0.0 0.0 0.0 29.1751946751" Properties=species:S:1:pos:R:3:initial_magmoms:R:1 pbc="T T T"
H        1.07846317      -1.71452252      -0.79589348       0.00000000
Si      -0.25091487       0.51116391      -2.29628621       0.00000000
Si       1.94289203       0.85250458       1.05908874       0.00000000
Si      -1.74584819       1.54308655       0.44845775       0.00000000
Si      -0.83409688      -1.99826174       1.08726614       0.00000000
Si       0.71081416       2.05373408       2.65448758       0.00000000
Si      -2.17171766      -0.84351250       2.64409246       0.00000000
Si       1.98136901      -2.45625509      -1.77229972       0.00000000
Si      -2.14557221      -0.79159627      -2.93347246       0.00000000
Si      -0.70591087       3.39687880       1.39990753       0.00000000
