10
Lattice="16.290000149 0.0 0.0 0.0 16.290000149 0.0 0.0 0.0 29.1751946751" Properties=species:S:1:pos:R:3:initial_magmoms:R:1 pbc="T T T"
Si       2.29974077       0.05914899      -0.45253644       0.00000000
Si      -0.86144779       2.07888095      -0.79131881       0.00000000
Si      -0.14323797       0.41541129       2.35869779       0.00000000
Si      -0.91790893      -2.08341283      -0.81290845       0.00000000
H       -2.30705498       0.20188197       0.91960214       0.00000000
H       -1.01651230       2.87515245       0.48410401       0.00000000
Si      -3.58795398       0.16092891       0.09931236       0.00000000
Si      -2.98457238      -1.35753368      -1.65843477       0.00000000
Si       3.06981795       2.10333224       0.42823351       0.00000000
Si       2.06014745       0.03373659       3.16302873       0.00000000
