10
Lattice="16.290000149 0.0 0.0 0.0 16.290000149 0.0 0.0 0.0 29.1751946751" Properties=species:S:1:pos:R:3:initial_magmoms:R:1 pbc="T T T"
H        1.19905804       0.36641097       0.88748025       0.00000000
Si       0.85001221       1.48222711      -1.63532801       0.00000000
Si      -0.76247789      -2.11905209       1.17616880       0.00000000
Si       0.54851689      -2.38264058      -0.73670284       0.00000000
Si      -2.18984843       1.41012757       1.04146692       0.00000000
H        2.60361443      -1.66532672       1.34550163       0.00000000
Si      -3.40923639      -0.18370233      -0.36658632       0.00000000
H       -1.87961352      -1.57724668      -2.46819229       0.00000000
Si      -0.24936732      -1.20814786       3.26905139       0.00000000
Si       1.28000305       3.29491317      -0.15179854       0.00000000
