10
Lattice="16.290000149 0.0 0.0 0.0 16.290000149 0.0 0.0 0.0 29.1751946751" Properties=species:S:1:pos:R:3:initial_magmoms:R:1 pbc="T T T"
Si      -1.36624231      -1.34342002       1.34579338       0.00000000
Si      -1.38026800       1.34695495      -1.33499856       0.00000000
Si       1.35290080      -1.36432009      -1.35369986       0.00000000
Si       1.36370107       1.36451557       1.34949863       0.00000000
Si       0.00858483       2.70602966      -2.63775853       0.00000000
Si       0.00143352      -2.70111008       2.67250618       0.00000000
Si       2.71700912      -0.00268785      -2.68289255       0.00000000
Si      -2.70488936      -2.70614369      -0.02051016       0.00000000
Si      -2.69658146       2.71715573       0.05549122       0.00000000
Si      -2.68478750       0.01847286       2.73803367       0.00000000
