10
Lattice="16.290000149 0.0 0.0 0.0 16.290000149 0.0 0.0 0.0 29.1751946751" Properties=species:S:1:pos:R:3:initial_magmoms:R:1 pbc="T T T"
Si       1.81275122       1.32291254       0.60415993       0.00000000
Si      -0.73044361      -0.34625861       2.26093171       0.00000000
Si      -1.22005585       1.86950721      -0.95280351       0.00000000
Si       1.61261227      -1.52523109      -1.07571860       0.00000000
H        0.72363439      -2.52271666       0.98795962       0.00000000
H       -1.17644752      -2.94914000      -0.25210286       0.00000000
Si      -0.26679762      -2.87539517      -1.46780404       0.00000000
Si       0.47961018       2.87095126       1.76116063       0.00000000
Si      -1.45964917       1.84409481       2.66276167       0.00000000
Si      -1.15870771      -1.45221930      -3.05700607       0.00000000
