10
Lattice="16.290000149 0.0 0.0 0.0 16.290000149 0.0 0.0 0.0 29.1751946751" Properties=species:S:1:pos:R:3:initial_magmoms:R:1 pbc="T T T"
Si       1.35612622      -1.39511634      -1.28942690       0.00000000
Si       1.39268098       1.34314309       1.32942610       0.00000000
Si      -1.32448941      -1.38377198       1.36181056       0.00000000
Si      -1.29393100       1.35319402      -1.43186020       0.00000000
Si      -2.64433129       2.67970502      -0.02511984       0.00000000
Si       2.70233183      -0.06507855      -2.63619474       0.00000000
Si       0.03367143       2.69843852       2.68341771       0.00000000
Si      -2.65604999      -0.04241916      -2.74991089       0.00000000
Si      -2.70448211      -0.03619638       2.70299426       0.00000000
Si      -2.63847520      -2.76770361      -0.00204226       0.00000000
