10
Lattice="16.290000149 0.0 0.0 0.0 16.290000149 0.0 0.0 0.0 29.1751946751" Properties=species:S:1:pos:R:3:initial_magmoms:R:1 pbc="T T T"
Si       1.34624308       1.46145736      -1.23328362       0.00000000
Si       1.38535537      -1.33977106       1.37226987       0.00000000
Si      -1.35999836       1.45831339       1.28756261       0.00000000
Si      -1.22021061      -1.48994857      -1.39871718       0.00000000
Si      -2.67937434      -2.66849750       0.01860210       0.00000000
Si      -2.66311692       0.10451664       2.72169556       0.00000000
Si      -0.01121241       2.70257618      -2.69039058       0.00000000
Si       2.78932532       0.26733519      -2.59244945       0.00000000
Si       0.03984045      -2.66862782       2.75393415       0.00000000
Si       0.03040203       2.74530486       2.72204566       0.00000000
