10
Lattice="16.290000149 0.0 0.0 0.0 16.290000149 0.0 0.0 0.0 29.1751946751" Properties=species:S:1:pos:R:3:initial_magmoms:R:1 pbc="T T T"
Si       0.90290584      -0.74173258      -0.97640624       0.00000000
Si      -1.07846317       1.71452252       0.79589348       0.00000000
Si      -1.91256005      -0.28373922       1.88315962       0.00000000
Si      -1.32937804       2.22568643      -1.50039274       0.00000000
Si       2.30497312      -1.91145233       0.48579617       0.00000000
Si      -0.68719366      -1.86991283      -2.32228715       0.00000000
Si       2.05627043       0.89756272      -2.15671792       0.00000000
Si       0.86442886       2.56702709       1.85498222       0.00000000
Si      -0.48464379      -1.64996525       3.21740838       0.00000000
Si      -3.21939273      -1.73060075       0.51120776       0.00000000
