10
Lattice="10.86 0.0 0.0 0.0 10.86 0.0 0.0 0.0 10.86" Properties=species:S:1:pos:R:3:initial_magmoms:R:1 pbc="T T T"
Si       1.15750224      -1.38318390       1.42350708       0.00000000
Si       1.04813118       1.66496832      -1.20292962       0.00000000
Si      -1.72240686       1.27398660       1.32979614       0.00000000
Si       2.47915338      -0.05409366       2.72815146       0.00000000
Si       2.47915338      -2.76909366       0.01315146       0.00000000
Si      -0.23584662       2.66090634       2.72815146       0.00000000
Si      -0.23584662      -2.76909366      -2.70184854       0.00000000
Si      -0.23584662      -2.76909366       2.72815146       0.00000000
Si      -0.25761006       2.68118196      -2.87129712       0.00000000
Si      -2.95084662       2.66090634       0.01315146       0.00000000
