10
Lattice="10.86 0.0 0.0 0.0 10.86 0.0 0.0 0.0 10.86" Properties=species:S:1:pos:R:3:initial_magmoms:R:1 pbc="T T T"
Si       1.32165114       1.32909024       1.30464438       0.00000000
Si      -1.15750224       1.38318390      -1.42350708       0.00000000
Si      -1.39334886      -1.38590976       1.30464438       0.00000000
Si       1.32165114      -1.38590976      -1.41035562       0.00000000
Si       2.67915114      -0.02840976       2.66214438       0.00000000
Si      -0.03584886       2.68659024       2.66214438       0.00000000
Si      -0.03584886      -2.74340976       2.66214438       0.00000000
Si      -2.75084886      -0.02840976       2.66214438       0.00000000
Si       2.67915114      -2.74340976      -0.05285562       0.00000000
Si       2.90087976       2.50789980       0.05248638       0.00000000
