10
Lattice="10.86 0.0 0.0 0.0 10.86 0.0 0.0 0.0 10.86" Properties=species:S:1:pos:R:3:initial_magmoms:R:1 pbc="T T T"
Si       1.42877418       1.25446032       1.14605580       0.00000000
Si      -1.26446238       1.23418470      -1.39949562       0.00000000
Si      -1.26446238      -1.48081530       1.31550438       0.00000000
Si       1.45053762      -1.48081530      -1.39949562       0.00000000
Si      -2.62196238       2.59168470      -0.04199562       0.00000000
Si      -2.62196238      -0.12331530       2.67300438       0.00000000
Si       0.09303762       2.59168470      -2.75699562       0.00000000
Si      -2.62196238      -0.12331530      -2.75699562       0.00000000
Si       0.18283896       2.65656234       2.72228706       0.00000000
Si       2.84974002       2.52458076      -0.12816972       0.00000000
