10
Lattice="10.86 0.0 0.0 0.0 10.86 0.0 0.0 0.0 10.86" Properties=species:S:1:pos:R:3:initial_magmoms:R:1 pbc="T T T"
Si       1.27120644       1.35005004       1.34141634       0.00000000
Si       1.27120644      -1.36494996      -1.37358366       0.00000000
Si      -1.44379356       1.35005004      -1.37358366       0.00000000
Si       2.62870644      -0.00744996       2.69891634       0.00000000
Si       2.62870644       2.70755004      -0.01608366       0.00000000
Si       2.62870644      -2.72244996      -0.01608366       0.00000000
Si       2.62870644      -0.00744996      -2.73108366       0.00000000
Si      -2.75959116       2.64044610      -0.10225776       0.00000000
Si       0.02398974      -2.74140066       2.67982446       0.00000000
Si      -0.08629356       2.70755004      -2.73108366       0.00000000
