10
Lattice="10.86 0.0 0.0 0.0 10.86 0.0 0.0 0.0 10.86" Properties=species:S:1:pos:R:3:initial_magmoms:R:1 pbc="T T T"
Si      -1.04813118      -1.66496832       1.20292962       0.00000000
Si      -1.30574124       1.01621364      -1.66836750       0.00000000
Si       0.20979348       2.33112072       2.60623710       0.00000000
Si      -2.55167646       2.41831566      -0.09213624       0.00000000
Si       2.71431582       2.36245182      -0.09715356       0.00000000
Si       0.11522460       2.28633408      -2.94259302       0.00000000
Si      -2.77053804      -0.39098172       2.53272576       0.00000000
Si      -2.73451542      -0.23824668      -2.81442330       0.00000000
Si       0.10937106      -3.04815222       2.62643670       0.00000000
Si       2.87481576      -0.35411202      -2.84033526       0.00000000
