10
Lattice="10.86 0.0 0.0 0.0 10.86 0.0 0.0 0.0 10.86" Properties=species:S:1:pos:R:3:initial_magmoms:R:1 pbc="T T T"
Si       1.08393660      -1.40335092      -1.34922468       0.00000000
Si       1.28772450       1.24811808       1.46007270       0.00000000
Si      -1.63106340       1.31164908      -1.34922468       0.00000000
Si      -1.63106340      -1.40335092       1.36577532       0.00000000
Si       2.44143660      -2.76085092       0.00827532       0.00000000
Si       2.48350824      -0.21573390       2.78057268       0.00000000
Si       2.56591392      -0.09775086      -2.72487174       0.00000000
Si      -0.27356340      -2.76085092      -2.70672468       0.00000000
Si      -0.27356340      -2.76085092       2.72327532       0.00000000
Si      -0.21273654       2.85033732      -2.72157030       0.00000000
