10
Lattice="10.86 0.0 0.0 0.0 10.86 0.0 0.0 0.0 10.86" Properties=species:S:1:pos:R:3:initial_magmoms:R:1 pbc="T T T"
Si      -1.41832686       1.17631176      -1.34265438       0.00000000
Si       1.61736894       0.82877004       1.48335654       0.00000000
Si       1.29667314      -1.53868824      -1.34265438       0.00000000
Si      -1.41832686      -1.53868824       1.37234562       0.00000000
Si      -0.06833112       2.29816062       2.48032626       0.00000000
Si       2.58550536       2.33840778       0.10744884       0.00000000
Si      -0.06082686       2.53381176      -2.70015438       0.00000000
Si      -2.77582686       2.53381176       0.01484562       0.00000000
Si       2.65417314      -0.18118824      -2.70015438       0.00000000
Si      -2.77582686      -0.18118824      -2.70015438       0.00000000
