10
Lattice="10.86 0.0 0.0 0.0 10.86 0.0 0.0 0.0 10.86" Properties=species:S:1:pos:R:3:initial_magmoms:R:1 pbc="T T T"
Si       0.96813642       1.50963774      -1.37590770       0.00000000
Si      -1.61736894      -0.82877004      -1.48335654       0.00000000
Si      -1.68570006       1.46939058       0.99696972       0.00000000
Si      -0.11690790      -2.43098928       2.69828646       0.00000000
Si      -0.32069580      -2.36745828      -2.82601092       0.00000000
Si       2.39430420       0.34754172      -2.82601092       0.00000000
Si      -3.03569580      -2.36745828      -0.11101092       0.00000000
Si       2.39430420       3.06254172      -0.11101092       0.00000000
Si      -3.03569580       0.34754172       2.60398908       0.00000000
Si      -0.32069580       3.06254172       2.60398908       0.00000000
