10
Lattice="10.86 0.0 0.0 0.0 10.86 0.0 0.0 0.0 10.86" Properties=species:S:1:pos:R:3:initial_magmoms:R:1 pbc="T T T"
Si      -1.06174962      -1.80498630       1.27317210       0.00000000
Si       1.65423864       1.55033016       0.93306948       0.00000000
Si      -1.06076136       1.55033016      -1.78193052       0.00000000
Si       1.65423864      -1.16466984      -1.78193052       0.00000000
Si      -2.23031820      -2.51806476      -0.55241562       0.00000000
Si      -2.50376214       0.14765256       2.33268456       0.00000000
Si       0.29673864       2.90783016       2.29056948       0.00000000
Si      -2.41826136       2.90783016      -0.42443052       0.00000000
Si      -2.41826136       0.19283016      -3.13943052       0.00000000
Si       0.29673864      -2.52216984      -3.13943052       0.00000000
