10
Lattice="16.290000149 0.0 0.0 0.0 16.290000149 0.0 0.0 0.0 29.1751946751" Properties=species:S:1:pos:R:3:initial_magmoms:R:1 pbc="T T T"
Si      -0.44618310       0.24275358      -2.28320347       0.00000000
Si       0.80651791       1.85987819       1.18177102       0.00000000
Si      -1.87414823      -0.79944805       1.19630902       0.00000000
Si       1.62743617      -1.74050507       0.08455322       0.00000000
Si       2.17828253       0.59038219       2.59893568       0.00000000
Si      -0.67997719      -2.20265237       2.63833678       0.00000000
Si      -2.16285590       1.87536998      -2.18243235       0.00000000
Si      -0.49189284      -2.05021055      -2.95376615       0.00000000
Si       1.71176951      -2.43108704      -2.14564243       0.00000000
Si       3.46608849      -0.85933009       1.27053071       0.00000000
