10
Lattice="16.290000149 0.0 0.0 0.0 16.290000149 0.0 0.0 0.0 29.1751946751" Properties=species:S:1:pos:R:3:initial_magmoms:R:1 pbc="T T T"
Si       1.58083048       0.73702477       1.59136099       0.00000000
Si       1.14552910       0.12570993      -2.06146091       0.00000000
Si      -0.91898407      -1.83345581       1.17380561       0.00000000
Si      -1.93403027       1.49408623      -0.31941003       0.00000000
Si      -1.93412801      -0.34003746       2.64931190       0.00000000
H       -2.80945488       0.52225740       1.76355299       0.00000000
H        1.84124243      -2.83643112      -0.16612356       0.00000000
Si      -0.02288745       0.95928553       3.26864294       0.00000000
Si       2.38744613       2.67821938       0.60380983       0.00000000
Si       2.66522321       1.97806214      -1.61776454       0.00000000
