10
Lattice="16.290000149 0.0 0.0 0.0 16.290000149 0.0 0.0 0.0 29.1751946751" Properties=species:S:1:pos:R:3:initial_magmoms:R:1 pbc="T T T"
Si      -1.25297794      -1.37065690       1.42796240       0.00000000
Si      -1.45388251       1.41856579      -1.21540943       0.00000000
Si       0.95459401      -1.28000305      -1.75127024       0.00000000
Si       1.39049812       1.37428957       1.34432295       0.00000000
Si       2.34421247       0.15496677      -2.93155274       0.00000000
Si      -2.68415219       0.00294849       2.72003841       0.00000000
Si      -2.05949585      -3.23053509       0.24619138       0.00000000
Si       0.02311551       2.72090243       2.73222781       0.00000000
Si       2.73849564       0.00972513       2.72064234       0.00000000
Si      -0.18665082       2.90066259      -2.54203471       0.00000000
