10
Lattice="16.290000149 0.0 0.0 0.0 16.290000149 0.0 0.0 0.0 29.1751946751" Properties=species:S:1:pos:R:3:initial_magmoms:R:1 pbc="T T T"
Si       1.25297794       1.37065690      -1.42796240       0.00000000
Si       1.37176462      -1.26949600       1.41716466       0.00000000
Si      -0.80651791      -1.85987819      -1.18177102       0.00000000
Si      -1.43117425       1.37360539       1.29207601       0.00000000
Si      -2.68066613      -2.65932623       0.01453800       0.00000000
Si      -0.05654259      -2.65937510       2.69872301       0.00000000
Si       2.65957058      -2.71920827       0.08875969       0.00000000
Si       2.64347606       2.74494648      -0.08363945       0.00000000
Si      -0.08829180       2.74098801       2.65703166       0.00000000
Si      -0.20090457       2.78922270      -2.64337183       0.00000000
