10
Lattice="16.290000149 0.0 0.0 0.0 16.290000149 0.0 0.0 0.0 29.1751946751" Properties=species:S:1:pos:R:3:initial_magmoms:R:1 pbc="T T T"
Si       0.65000359      -0.42402870       2.13359657       0.00000000
Si      -1.07082316      -1.76153546      -1.06156863       0.00000000
Si      -1.70772959       1.59340636      -0.01096987       0.00000000
Si       1.78549805       0.58547890      -1.44630193       0.00000000
Si      -0.31811112       3.02837619      -1.19125237       0.00000000
H        3.09754353       1.10402218      -0.51327920       0.00000000
H       -0.55162827      -3.04134303       1.32790899       0.00000000
Si      -2.00031428      -0.72001801      -2.89557972       0.00000000
Si       0.75720808       1.92301823      -3.05893164       0.00000000
Si      -1.25573095      -1.21645576       3.25702246       0.00000000
