10
Lattice="16.290000149 0.0 0.0 0.0 16.290000149 0.0 0.0 0.0 29.1751946751" Properties=species:S:1:pos:R:3:initial_magmoms:R:1 pbc="T T T"
Si      -1.34713414      -1.35625654      -1.36259829       0.00000000
Si      -1.37073835       1.36353817       1.33572794       0.00000000
Si       1.35034327       1.37554390      -1.34821492       0.00000000
Si       1.34555401      -1.35988921       1.36892931       0.00000000
Si      -0.00537570       2.71857296       2.68298008       0.00000000
Si      -2.70676271      -2.70102863       0.01053225       0.00000000
Si      -2.69855255       0.01277136      -2.71831124       0.00000000
Si       0.02924055      -2.70596450      -2.71396413       0.00000000
Si       2.76926745       0.04362462      -2.64945778       0.00000000
Si       2.71660187      -2.70568757       0.03025468       0.00000000
