10
Lattice="16.290000149 0.0 0.0 0.0 16.290000149 0.0 0.0 0.0 29.1751946751" Properties=species:S:1:pos:R:3:initial_magmoms:R:1 pbc="T T T"
Si      -1.43246931       1.21492450      -1.38205815       0.00000000
Si       1.14275980      -1.42708546      -1.46086035       0.00000000
Si      -1.48298786      -1.19167867       1.38993545       0.00000000
Si       1.50547294       1.33823980       1.30071770       0.00000000
H        0.02671560      -2.67418271       0.76304804       0.00000000
H       -2.59827783      -0.19205910       1.65618828       0.00000000
H        2.04561677      -2.32702652      -0.64973159       0.00000000
Si      -0.19205910      -1.05077017       3.41589014       0.00000000
Si      -0.06525774       2.64430685      -2.68026678       0.00000000
Si       0.12398319       2.81966871       2.51157581       0.00000000
