10
Lattice="16.290000149 0.0 0.0 0.0 16.290000149 0.0 0.0 0.0 29.1751946751" Properties=species:S:1:pos:R:3:initial_magmoms:R:1 pbc="T T T"
Si      -1.33670040      -1.34983828       1.37065065       0.00000000
Si       1.35176050      -1.36124128      -1.36029345       0.00000000
Si      -1.40584167       1.33855583      -1.33257702       0.00000000
Si       1.34408791       1.34601502       1.38812659       0.00000000
Si       2.65290797       2.69360039      -0.03378488       0.00000000
Si      -2.71587003       0.04583648       2.66874258       0.00000000
Si      -0.05779692       2.69215058      -2.70824580       0.00000000
Si       2.71539641      -0.01062108      -2.70915023       0.00000000
Si      -0.07509690       2.70045848       2.72423380       0.00000000
Si      -2.71642319      -2.70969491       0.01385822       0.00000000
