10
Lattice="16.290000149 0.0 0.0 0.0 16.290000149 0.0 0.0 0.0 29.1751946751" Properties=species:S:1:pos:R:3:initial_magmoms:R:1 pbc="T T T"
Si       1.53969823      -1.26969148      -1.19947978       0.00000000
Si       1.39520593       1.31654152       1.37268707       0.00000000
Si      -1.21389823      -1.43081587       1.44677456       0.00000000
Si      -1.47646045       1.20723562      -1.45254542       0.00000000
H        0.37579401      -1.83635543      -2.24398092       0.00000000
Si      -2.66536982       2.68916951      -0.02129789       0.00000000
Si       2.85792691       2.48689658      -0.04253743       0.00000000
Si      -2.64557747      -0.05724306       2.73024098       0.00000000
Si      -0.14436198       2.53117280      -2.85374249       0.00000000
Si       2.68495040      -2.75349873       0.19904485       0.00000000
