10
Lattice="16.290000149 0.0 0.0 0.0 16.290000149 0.0 0.0 0.0 29.1751946751" Properties=species:S:1:pos:R:3:initial_magmoms:R:1 pbc="T T T"
Si       1.38961846       1.43496982      -1.18028250       0.00000000
Si       1.70772959      -1.59340636       0.01096987       0.00000000
Si      -0.95459401       1.28000305       1.75127024       0.00000000
Si      -1.59171220      -0.81324568      -1.56317776       0.00000000
Si      -2.06878115       1.21728655      -2.62072021       0.00000000
Si      -0.17544330       2.72023454      -2.30171863       0.00000000
Si       0.63690643      -3.35494182      -1.05059876       0.00000000
Si      -2.40847652       2.69856884       0.53586080       0.00000000
Si      -0.29258469      -2.31342437      -2.88460985       0.00000000
Si       2.35773317      -2.01743507       2.14456645       0.00000000
