10
Lattice="16.290000149 0.0 0.0 0.0 16.290000149 0.0 0.0 0.0 29.1751946751" Properties=species:S:1:pos:R:3:initial_magmoms:R:1 pbc="T T T"
Si       1.31033503      -1.42776964       1.29686658       0.00000000
Si      -1.35145099      -1.38624643      -1.32259910       0.00000000
Si       1.37562535       1.33053463      -1.35559625       0.00000000
Si      -1.29919267       1.35773893       1.41741848       0.00000000
Si       2.66084120      -0.08491977       2.60925436       0.00000000
Si      -2.66975509       2.70037703       0.06085946       0.00000000
Si       0.00892692       2.68801292      -2.68365111       0.00000000
Si      -2.69045317      -0.02663415      -2.68499317       0.00000000
Si      -2.63099630      -0.04020372       2.75874806       0.00000000
Si       0.03745071      -2.73673631      -2.65628477       0.00000000
