10
Lattice="16.290000149 0.0 0.0 0.0 16.290000149 0.0 0.0 0.0 29.1751946751" Properties=species:S:1:pos:R:3:initial_magmoms:R:1 pbc="T T T"
Si       1.41507322       1.38636046      -1.25635974       0.00000000
Si       1.36770190      -1.34853508       1.36907519       0.00000000
Si      -1.28017393       1.34517934       1.45569634       0.00000000
Si      -1.39306217      -1.30034926      -1.41597431       0.00000000
Si      -2.70276189      -2.65048076       0.00627267       0.00000000
Si      -2.59464516       2.77780503       0.17400086       0.00000000
Si       2.73384647       0.08386092      -2.68835998       0.00000000
Si       2.71747502      -2.71689509       0.00671029       0.00000000
Si       0.02114931      -2.69576696       2.73861717       0.00000000
Si       2.71641617       2.71800607       0.16837005       0.00000000
