10
Lattice="16.290000149 0.0 0.0 0.0 16.290000149 0.0 0.0 0.0 29.1751946751" Properties=species:S:1:pos:R:3:initial_magmoms:R:1 pbc="T T T"
Si      -1.34800051      -1.35426916       1.35652985       0.00000000
Si      -1.36927525       1.35581671      -1.34065855       0.00000000
Si       1.33065707      -1.34908894      -1.39040225       0.00000000
Si       1.31471242       1.36630747       1.39346565       0.00000000
Si       0.02933383       2.69185736      -2.67332309       0.00000000
Si       2.68183602      -2.70901073      -0.03194684       0.00000000
Si      -2.69215358       0.01107720       2.70699126       0.00000000
Si       2.69105616       2.71402805       0.04338351       0.00000000
Si      -2.71906466      -2.70308117       0.00186721       0.00000000
Si       2.70374607       0.01656693       2.72271669       0.00000000
