10
Lattice="16.290000149 0.0 0.0 0.0 16.290000149 0.0 0.0 0.0 29.1751946751" Properties=species:S:1:pos:R:3:initial_magmoms:R:1 pbc="T T T"
H        1.28728468       0.03748329       0.81451308       0.00000000
Si      -1.37029364      -1.37532562       1.35623810       0.00000000
Si       0.61447510      -1.51664625      -1.75903084       0.00000000
Si      -0.77883794       2.26808930       0.20472234       0.00000000
Si       0.53804242       1.99671419      -1.70289776       0.00000000
Si       0.49650291      -2.53044919       2.24538133       0.00000000
Si       2.74779723       1.91673029      -0.89442394       0.00000000
H       -3.05341392       1.06060933      -1.56542425       0.00000000
Si       3.60981516      -0.15933249      -0.10304679       0.00000000
Si       2.68828985      -2.23847734      -0.92184863       0.00000000
