10
Lattice="16.290000149 0.0 0.0 0.0 16.290000149 0.0 0.0 0.0 29.1751946751" Properties=species:S:1:pos:R:3:initial_magmoms:R:1 pbc="T T T"
Si       1.23991336      -1.38904831       1.37429755       0.00000000
Si      -1.36114354       1.34770429       1.33283959       0.00000000
Si      -1.29448486      -1.43573545      -1.31332139       0.00000000
Si       1.45606537       1.29893203      -1.30296419       0.00000000
Si       2.68100822      -0.05945850       2.58430957       0.00000000
Si      -2.64969884      -0.06915105      -2.65042056       0.00000000
Si       0.09257607       2.62477514      -2.68327183       0.00000000
Si       0.02590110       2.70001865       2.62585505       0.00000000
Si      -2.60330492      -2.78332083       0.10859007       0.00000000
Si       0.13067838      -2.79774399      -2.61188013       0.00000000
