10
Lattice="16.290000149 0.0 0.0 0.0 16.290000149 0.0 0.0 0.0 29.1751946751" Properties=species:S:1:pos:R:3:initial_magmoms:R:1 pbc="T T T"
H        0.71889400       0.08045631       1.32475806       0.00000000
H       -1.39338145       0.83826712       1.62864689       0.00000000
Si       1.61080408      -0.78804505      -1.52279929       0.00000000
Si      -1.87260068      -1.46393344      -0.15702090       0.00000000
Si      -0.34165017       1.95191669      -1.37111745       0.00000000
H        1.86528647       1.71408269       0.19745772       0.00000000
H        2.51525747       1.28987479       0.24142474       0.00000000
Si      -0.79715116       0.92919790       3.03069005       0.00000000
Si       0.12465108      -1.80133193      -2.99293735       0.00000000
Si      -0.99577513      -3.24298065      -1.44163389       0.00000000
