10
Lattice="16.290000149 0.0 0.0 0.0 16.290000149 0.0 0.0 0.0 29.1751946751" Properties=species:S:1:pos:R:3:initial_magmoms:R:1 pbc="T T T"
Si      -1.42737868       1.34521029      -1.26973365       0.00000000
Si      -1.37885077      -1.34583094       1.33070980       0.00000000
Si       1.35347095       1.38705279       1.33330640       0.00000000
Si       1.35075052      -1.33033915      -1.39842543       0.00000000
Si      -0.09203850       2.68322366      -2.59974616       0.00000000
Si      -0.00649971      -2.69255783       2.67078485       0.00000000
Si       2.70063767      -2.67432932      -0.03687745       0.00000000
Si       2.71235018       0.03398094       2.68680203       0.00000000
Si      -2.72556137       0.03256371       2.67985833       0.00000000
Si       2.81079066       0.09902072      -2.60962197       0.00000000
