10
Lattice="16.290000149 0.0 0.0 0.0 16.290000149 0.0 0.0 0.0 29.1751946751" Properties=species:S:1:pos:R:3:initial_magmoms:R:1 pbc="T T T"
H       -1.26247876       0.96063760       0.29790791       0.00000000
Si       1.26590080      -1.08932860       1.65537516       0.00000000
Si       1.26889816       1.58569176      -1.18760547       0.00000000
Si      -1.51724573      -1.36298431      -1.24662689       0.00000000
Si      -1.41313634       1.94177128       1.58999093       0.00000000
Si      -0.59789839       2.74081533      -2.07674871       0.00000000
Si       2.72595722      -2.28073034       0.28539175       0.00000000
Si      -0.02174226      -2.50795955      -2.56102776       0.00000000
Si       2.67350342       0.38716443      -2.64834912       0.00000000
Si      -0.05651327      -2.57696399       2.87768949       0.00000000
