10
Lattice="16.290000149 0.0 0.0 0.0 16.290000149 0.0 0.0 0.0 29.1751946751" Properties=species:S:1:pos:R:3:initial_magmoms:R:1 pbc="T T T"
Si      -1.27516818       1.40294368       1.33425167       0.00000000
Si       1.63127736      -1.20259297       1.19424662       0.00000000
Si      -1.35425613      -1.92621107      -0.49662016       0.00000000
Si       0.66785417       1.73794754      -1.52484155       0.00000000
Si       0.32152062      -2.59824036       2.57213476       0.00000000
Si       0.14726160       0.81521677      -3.61206415       0.00000000
Si      -2.59530979       0.06307488       2.68991794       0.00000000
Si       0.23237685       2.78197365       2.49938641       0.00000000
Si      -2.42042035       2.88675093      -0.06427295       0.00000000
Si      -0.44419410      -2.82819815      -2.46054839       0.00000000
