10
Lattice="16.290000149 0.0 0.0 0.0 16.290000149 0.0 0.0 0.0 29.1751946751" Properties=species:S:1:pos:R:3:initial_magmoms:R:1 pbc="T T T"
Si      -1.35475786      -1.35495334       1.33438588       0.00000000
Si      -1.37360539       1.34641901      -1.33692412       0.00000000
Si       1.30683268       1.31374616       1.44647698       0.00000000
Si       1.35205372      -1.38546451      -1.33730340       0.00000000
Si       0.04015485      -2.80580592       2.52803062       0.00000000
Si       2.67367772       2.67292838       0.06981624       0.00000000
Si      -0.00891063       2.69379587      -2.68668533       0.00000000
Si       2.71243163      -0.02191005      -2.67860380       0.00000000
Si      -2.72547992      -0.02332728      -2.68554749       0.00000000
Si      -2.72354141       2.69583212       0.03614807       0.00000000
