10
Lattice="16.290000149 0.0 0.0 0.0 16.290000149 0.0 0.0 0.0 29.1751946751" Properties=species:S:1:pos:R:3:initial_magmoms:R:1 pbc="T T T"
Si       1.35475786       1.35495334      -1.33438588       0.00000000
Si       1.39491271      -1.45085257       1.19364474       0.00000000
Si      -1.37725435      -1.36578619      -1.33636979       0.00000000
Si      -1.30394935       1.34574949       1.43241453       0.00000000
Si      -0.02010186      -2.77731471       2.43271526       0.00000000
Si       2.66159054       2.66869950       0.11209110       0.00000000
Si      -0.01884753       2.70137235      -2.67131000       0.00000000
Si       2.70681158      -0.03051117      -2.67168928       0.00000000
Si      -2.70368390       2.68688729       0.07124583       0.00000000
Si      -2.64789065      -0.03282435       2.74559005       0.00000000
