10
Lattice="16.290000149 0.0 0.0 0.0 16.290000149 0.0 0.0 0.0 29.1751946751" Properties=species:S:1:pos:R:3:initial_magmoms:R:1 pbc="T T T"
H       -0.61431220       1.30355350      -0.44276275       0.00000000
Si      -0.84463651      -1.66111249      -1.39792945       0.00000000
Si       2.30863511       0.08810772      -0.36110138       0.00000000
Si      -0.75665422      -0.58639439       2.15394627       0.00000000
H        1.40458897       1.65070970      -1.85554238       0.00000000
Si       2.36622026      -1.98042908       0.92418264       0.00000000
Si      -2.22334719      -0.20844195      -2.55487180       0.00000000
Si      -2.12401565       2.78605755       0.18412465       0.00000000
Si       1.31716054      -1.30822548       2.99112848       0.00000000
Si       0.50173200       2.55065076      -2.66667114       0.00000000
