10
Lattice="16.290000149 0.0 0.0 0.0 16.290000149 0.0 0.0 0.0 29.1751946751" Properties=species:S:1:pos:R:3:initial_magmoms:R:1 pbc="T T T"
Si       0.18050949      -1.38890333      -0.60914889       0.00000000
Si      -0.70410268       1.82488727       1.92911347       0.00000000
Si      -0.51919488       1.27980757      -2.38947762       0.00000000
Si      -2.54275499       0.94371229       0.74313597       0.00000000
Si      -2.45842166       0.25313031      -1.48705967       0.00000000
Si       1.20163186       2.61731432       0.80568759       0.00000000
Si       2.04804398      -0.78295116       2.06152801       0.00000000
Si       1.00615186      -2.63371835       1.10665014       0.00000000
Si       2.90913339       0.95236228       0.68187798       0.00000000
Si       2.07941852      -1.37109347      -1.94936981       0.00000000
