10
Lattice="16.290000149 0.0 0.0 0.0 16.290000149 0.0 0.0 0.0 29.1751946751" Properties=species:S:1:pos:R:3:initial_magmoms:R:1 pbc="T T T"
Si       0.92949112      -1.04151745       1.83401109       0.00000000
Si      -0.77051701      -2.04597515      -0.87910697       0.00000000
Si      -1.29912751       1.50017869       1.32143209       0.00000000
Si       1.99244621       0.59852719      -1.17170499       0.00000000
H       -0.26015130       2.68196933      -1.44204235       0.00000000
Si      -0.15556950      -1.52950069      -3.06076967       0.00000000
Si       2.26662320      -2.58515786       0.67811905       0.00000000
Si      -1.00973566      -2.06819471       2.73642903       0.00000000
Si       2.00031428       0.72001801       2.89557972       0.00000000
Si       0.29258469       2.31342437       2.88460985       0.00000000
