10
Lattice="16.290000149 0.0 0.0 0.0 16.290000149 0.0 0.0 0.0 29.1751946751" Properties=species:S:1:pos:R:3:initial_magmoms:R:1 pbc="T T T"
Si      -1.36438525      -1.35057133       1.35276625       0.00000000
Si       1.30614850       1.29482695       1.47512702       0.00000000
Si      -1.37191123       1.41234301      -1.30624640       0.00000000
Si       1.36738261      -1.34661286      -1.38790486       0.00000000
Si       2.66517434       2.63397899       0.16097122       0.00000000
Si      -2.70726770      -2.71795394      -0.01218940       0.00000000
Si       2.71538012      -2.71117730      -0.01158547       0.00000000
Si      -2.72676683       0.02391372       2.70191478       0.00000000
Si      -0.01153332      -2.66942603       2.76020682       0.00000000
Si      -2.79142185       0.12641040      -2.65330074       0.00000000
