10
Lattice="16.290000149 0.0 0.0 0.0 16.290000149 0.0 0.0 0.0 29.1751946751" Properties=species:S:1:pos:R:3:initial_magmoms:R:1 pbc="T T T"
H       -1.12316293       0.05792724       1.01249596       0.00000000
Si       0.22563279      -2.13459275      -0.91306689       0.00000000
Si       2.06265611       0.69486625       0.89845012       0.00000000
Si      -0.22766904       1.51352020      -1.83774551       0.00000000
H       -0.46589400       0.99207730       2.63028968       0.00000000
H       -2.04296150       1.82879687       1.43962081       0.00000000
Si       2.34978365      -1.54826677      -1.91549741       0.00000000
H        2.43256943      -2.37242675       0.65550827       0.00000000
Si       3.32224779       0.44742114      -1.03875363       0.00000000
Si       1.72302590       2.81284320       1.83389439       0.00000000
