10
Lattice="16.290000149 0.0 0.0 0.0 16.290000149 0.0 0.0 0.0 29.1751946751" Properties=species:S:1:pos:R:3:initial_magmoms:R:1 pbc="T T T"
Si       2.24966531      -0.44144271       0.27850641       0.00000000
Si      -1.55015641      -1.71160335      -0.44182915       0.00000000
Si      -0.72044155       0.61185241       2.18941864       0.00000000
Si      -0.05975172       1.44045955      -1.93720375       0.00000000
H        0.13981707      -1.30531771      -2.66410373       0.00000000
Si      -2.81163774      -0.60434272      -2.03782900       0.00000000
Si       2.34448940      -2.14247385       1.98131781       0.00000000
Si      -1.29244861       3.28631205      -1.26667025       0.00000000
H        0.01959687       3.80485533      -0.33364753       0.00000000
Si       3.15972735      -1.34342980      -1.68542182       0.00000000
