10
Lattice="16.290000149 0.0 0.0 0.0 16.290000149 0.0 0.0 0.0 29.1751946751" Properties=species:S:1:pos:R:3:initial_magmoms:R:1 pbc="T T T"
Si      -0.71889400      -0.08045631      -1.32475806       0.00000000
H       -2.11227545       0.75781081       0.30388883       0.00000000
H        1.14639247       1.63362637      -1.12730035       0.00000000
H        1.79636348       1.20941848      -1.08333333       0.00000000
Si      -1.51604515       0.84874159       1.70593198       0.00000000
Si       0.26015130      -2.68196933       1.44204235       0.00000000
Si       2.25259751      -2.08344215       0.27033735       0.00000000
Si       0.89191009      -0.86850136      -2.84755735       0.00000000
Si       0.37729269       2.35168958       2.02493356       0.00000000
Si      -1.03897621      -1.18179064       2.76347444       0.00000000
