10
Lattice="16.290000149 0.0 0.0 0.0 16.290000149 0.0 0.0 0.0 29.1751946751" Properties=species:S:1:pos:R:3:initial_magmoms:R:1 pbc="T T T"
Si      -1.26889816      -1.58569176       1.18760547       0.00000000
Si       1.40460526      -1.19852733      -1.46074365       0.00000000
Si      -1.86679655       1.15512357      -0.88914323       0.00000000
Si       1.45269334       1.42122235       1.29193597       0.00000000
H       -2.53137692      -0.62505416       1.48551339       0.00000000
H        0.79078177       2.56793248      -1.43086825       0.00000000
Si      -0.49650291       2.53044919      -2.24538133       0.00000000
Si      -2.77685859       2.05711065       1.07478500       0.00000000
Si      -0.12681765      -2.52137308      -2.65269623       0.00000000
Si       2.78485698      -2.51244616      -0.01770934       0.00000000
