10
Lattice="16.290000149 0.0 0.0 0.0 16.290000149 0.0 0.0 0.0 29.1751946751" Properties=species:S:1:pos:R:3:initial_magmoms:R:1 pbc="T T T"
Si      -0.84685195       1.84423979      -1.12172788       0.00000000
Si       1.71294239      -0.44416314      -1.52548340       0.00000000
Si       1.37324701       1.03711915       1.63109761       0.00000000
Si      -1.39522222      -1.73661176       0.91026607       0.00000000
H        1.11671209      -0.53509392      -2.92752656       0.00000000
H       -1.99262540      -1.17718057      -2.19724226       0.00000000
Si       2.19001133      -2.47469537      -0.46794095       0.00000000
Si       0.32145057      -3.36922815       0.80949495       0.00000000
Si       2.64047870       2.51921594       0.30447233       0.00000000
Si      -2.57116475       2.60048675       0.25370749       0.00000000
