10
Lattice="16.290000149 0.0 0.0 0.0 16.290000149 0.0 0.0 0.0 29.1751946751" Properties=species:S:1:pos:R:3:initial_magmoms:R:1 pbc="T T T"
Si       1.29604870       1.28161935       1.50881562       0.00000000
Si      -1.34633593      -1.35945557       1.40238159       0.00000000
Si       1.47878992      -1.29994820      -1.33952071       0.00000000
Si      -1.35208630       1.38619952      -1.40061357       0.00000000
Si      -0.01992267      -2.54746899      -2.71025888       0.00000000
Si      -2.59610474       2.74570592       0.07310224       0.00000000
Si       2.69412167      -2.71483246       0.11030178       0.00000000
Si       2.28636668       3.06673295       0.35440568       0.00000000
Si       2.37070001       2.37615097      -1.87578997       0.00000000
Si       3.10075266       0.18659413      -2.27648209       0.00000000
