10
Lattice="16.290000149 0.0 0.0 0.0 16.290000149 0.0 0.0 0.0 29.1751946751" Properties=species:S:1:pos:R:3:initial_magmoms:R:1 pbc="T T T"
Si      -1.43423677       1.32216157       1.28175383       0.00000000
Si      -1.37714032      -1.33978735      -1.33272289       0.00000000
Si       1.34846992       1.35830908      -1.35314553       0.00000000
Si       1.35690814      -1.33475374       1.37692331       0.00000000
Si      -0.00866628       2.71164971       2.46189045       0.00000000
Si       0.00140094      -2.70589934      -2.64438130       0.00000000
Si       2.72751617       0.01050705      -2.67376072       0.00000000
Si      -2.72771165       0.03727152      -2.67504442       0.00000000
Si      -0.01394424       2.75274939      -2.65765601       0.00000000
Si       0.01601307      -2.66740607       2.74990797       0.00000000
