10
Lattice="16.290000149 0.0 0.0 0.0 16.290000149 0.0 0.0 0.0 29.1751946751" Properties=species:S:1:pos:R:3:initial_magmoms:R:1 pbc="T T T"
Si      -1.66894635      -0.79153111       1.44703131       0.00000000
Si       1.11396397       1.69730399       1.25482512       0.00000000
Si      -0.52472045       0.67696354      -2.23009353       0.00000000
Si       1.41932817      -1.94033450      -0.01353729       0.00000000
H       -2.83285057      -1.35819505       0.40253016       0.00000000
Si       2.47267215       0.29325258       2.56805899       0.00000000
Si       0.89873560      -2.86306527      -2.10075989       0.00000000
Si       3.47493070      -0.94397293       0.71986875       0.00000000
Si      -0.52369418      -2.27533835       2.84555593       0.00000000
H        2.87752753      -0.38454174      -2.38763958       0.00000000
