10
Lattice="16.290000149 0.0 0.0 0.0 16.290000149 0.0 0.0 0.0 29.1751946751" Properties=species:S:1:pos:R:3:initial_magmoms:R:1 pbc="T T T"
Si       0.73594963      -1.32872644       1.78931469       0.00000000
Si      -1.76200787       0.97134013       1.25479595       0.00000000
Si       1.38738673       1.82747738      -0.75330353       0.00000000
Si       0.10248039      -1.72929755      -1.80912465       0.00000000
H       -2.14627268      -0.24483870      -1.31291294       0.00000000
Si       2.87728644       0.56273806      -2.03855838       0.00000000
Si       2.72520299      -2.21788352       0.80578970       0.00000000
Si      -0.78754006      -3.17451704       1.70995816       0.00000000
Si      -2.79393051       0.59315149      -2.39364967       0.00000000
Si       1.53494155      -3.36042862      -0.88607984       0.00000000
