10
Lattice="16.290000149 0.0 0.0 0.0 16.290000149 0.0 0.0 0.0 29.1751946751" Properties=species:S:1:pos:R:3:initial_magmoms:R:1 pbc="T T T"
H       -1.16390422      -0.56666395      -1.04450114       0.00000000
Si      -1.53969823       1.26969148       1.19947978       0.00000000
Si       1.14525217      -1.48380724       1.39852463       0.00000000
Si       1.66894635       0.79153111      -1.44703131       0.00000000
Si      -2.47594970      -1.08520723      -1.97752387       0.00000000
Si       3.08827452      -1.14880339      -1.46056860       0.00000000
Si      -0.14449230       2.58623300       2.57216685       0.00000000
Si       2.65279720      -0.10477728       2.56365937       0.00000000
Si       2.78291032       2.48883509      -0.19220618       0.00000000
Si       2.42042035      -2.88675093       0.06427295       0.00000000
