10
Lattice="16.290000149 0.0 0.0 0.0 16.290000149 0.0 0.0 0.0 29.1751946751" Properties=species:S:1:pos:R:3:initial_magmoms:R:1 pbc="T T T"
Si      -1.31709538       1.32296630       1.39937363       0.00000000
Si       0.99031798       1.78511360      -1.15440994       0.00000000
Si       1.38403099      -1.32612845       1.36309427       0.00000000
Si      -1.29604870      -1.28161935      -1.50881562       0.00000000
Si      -2.51126642       2.72617062      -0.04265413       0.00000000
Si       1.07465131       1.09453163      -3.38460558       0.00000000
Si      -2.64238463      -2.64107492      -0.10643403       0.00000000
Si      -0.63711820       3.52561867      -1.23896315       0.00000000
Si       0.11285712       2.72612175       2.64153088       0.00000000
Si       0.02928942      -2.72068415       2.67015174       0.00000000
