10
Lattice="16.290000149 0.0 0.0 0.0 16.290000149 0.0 0.0 0.0 29.1751946751" Properties=species:S:1:pos:R:3:initial_magmoms:R:1 pbc="T T T"
Si      -1.30798927      -1.29016801       1.47054943       0.00000000
Si      -1.34799751       1.36456444      -1.37631939       0.00000000
Si       1.37099899       1.40664151       1.31236152       0.00000000
Si       1.43167924      -1.37357281      -1.28346641       0.00000000
Si      -2.61970895      -2.64987803       0.12448472       0.00000000
Si       2.64557747       0.05724306      -2.73024098       0.00000000
Si       2.74877463      -2.63616185       0.18877226       0.00000000
Si      -2.71538012       2.71117730       0.01158547       0.00000000
Si       2.71106327       0.07105698       2.73538164       0.00000000
Si      -2.73849564      -0.00972513      -2.72064234       0.00000000
