10
Lattice="16.290000149 0.0 0.0 0.0 16.290000149 0.0 0.0 0.0 29.1751946751" Properties=species:S:1:pos:R:3:initial_magmoms:R:1 pbc="T T T"
Si      -1.34987036      -1.41125158       1.30372275       0.00000000
Si       1.33870946      -1.36303318      -1.37266373       0.00000000
Si      -1.43902553       1.34941474      -1.28668444       0.00000000
Si       1.37972279       1.35985663       1.35679243       0.00000000
Si      -2.58729135      -0.04505814       2.72125793       0.00000000
Si      -0.06023992       2.67623525      -2.67594886       0.00000000
Si       0.00055316       2.75553139       2.65488437       0.00000000
Si       2.70927188      -2.70567128      -0.01610471       0.00000000
Si      -0.02678026      -2.78469408       2.63802110       0.00000000
Si       2.69879741      -0.01299942      -2.72648029       0.00000000
