10
Lattice="16.290000149 0.0 0.0 0.0 16.290000149 0.0 0.0 0.0 29.1751946751" Properties=species:S:1:pos:R:3:initial_magmoms:R:1 pbc="T T T"
Si       1.05806809      -1.46559502      -1.47784031       0.00000000
Si      -1.31261563      -1.36306576       1.38086196       0.00000000
Si      -1.44700813       1.35195598      -1.28373774       0.00000000
Si       1.81283267       0.75355912       1.38672618       0.00000000
Si       2.15448284      -1.19835757       2.75784363       0.00000000
Si       0.28188216      -2.66229101       2.60082273       0.00000000
Si       2.43325361      -0.14555115      -2.83387418       0.00000000
Si      -2.69410538       0.11836314       2.59172007       0.00000000
Si       2.27913392      -2.99968950      -0.23509372       0.00000000
Si      -0.14512761       2.58929552      -2.78246749       0.00000000
