10
Lattice="16.290000149 0.0 0.0 0.0 16.290000149 0.0 0.0 0.0 29.1751946751" Properties=species:S:1:pos:R:3:initial_magmoms:R:1 pbc="T T T"
Si      -1.37222074       1.36173324      -1.31221273       0.00000000
Si      -1.38992797      -1.35935164       1.30240987       0.00000000
Si       1.31688361      -1.35202114      -1.39235699       0.00000000
Si       1.35570268       1.37319488       1.33648649       0.00000000
Si      -0.00765630      -2.70518258       2.63737925       0.00000000
Si      -0.02950119       2.69162930      -2.66313511       0.00000000
Si       2.67162518       0.04253456      -2.69941446       0.00000000
Si       2.73426023       0.01264104       2.66025260       0.00000000
Si      -2.70708851       0.01107720       2.69182016       0.00000000
Si      -0.00601101       2.72930807       2.67516113       0.00000000
