10
Lattice="16.290000149 0.0 0.0 0.0 16.290000149 0.0 0.0 0.0 29.1751946751" Properties=species:S:1:pos:R:3:initial_magmoms:R:1 pbc="T T T"
Si      -1.31171968      -1.35971002      -1.34606471       0.00000000
Si       1.31771440      -1.39144294       1.34132958       0.00000000
Si      -1.41892417       1.33191928       1.30124286       0.00000000
Si       1.30798927       1.29016801      -1.47054943       0.00000000
Si      -0.04541652       2.65826738       2.66535826       0.00000000
Si       2.69539229      -0.02728575       2.64718211       0.00000000
Si       2.67898826       2.69680952      -0.15818791       0.00000000
Si       2.64508877      -2.75069685      -0.02517819       0.00000000
Si      -2.76926745      -0.04362462       2.64945778       0.00000000
Si      -2.77177611       2.65077398      -0.10619771       0.00000000
