10
Lattice="16.290000149 0.0 0.0 0.0 16.290000149 0.0 0.0 0.0 29.1751946751" Properties=species:S:1:pos:R:3:initial_magmoms:R:1 pbc="T T T"
Si       0.97981093      -1.86048092       0.89401549       0.00000000
Si      -1.48615300      -1.01328688      -1.47013806       0.00000000
Si      -1.61080408       0.78804505       1.52279929       0.00000000
Si       1.65762155       1.52588431      -0.73568171       0.00000000
H        0.90445339       2.07791984       1.76422402       0.00000000
H        0.25448238       2.50212773       1.72025700       0.00000000
H       -0.89191009       0.86850136       2.84755735       0.00000000
Si      -1.95245426       2.73996173       0.15168184       0.00000000
Si       0.17169660       3.32628771      -0.85074868       0.00000000
Si      -0.05211171      -2.23866956      -2.75443013       0.00000000
