10
Lattice="16.290000149 0.0 0.0 0.0 16.290000149 0.0 0.0 0.0 29.1751946751" Properties=species:S:1:pos:R:3:initial_magmoms:R:1 pbc="T T T"
Si      -1.34363179      -1.32713002      -1.40709046       0.00000000
Si      -1.38587176       1.34977312       1.35451676       0.00000000
Si       1.35567010       1.34700382      -1.39381575       0.00000000
Si       1.39133918      -1.35697330       1.34944028       0.00000000
Si      -2.68353317      -2.67569768      -0.03448508       0.00000000
Si       2.66351276      -2.71740008      -0.07328809       0.00000000
Si      -2.71725347       2.66517434      -0.08813826       0.00000000
Si       0.02353905       2.71572221       2.66996794       0.00000000
Si       2.75122627       0.05479956       2.65911477       0.00000000
Si      -2.73704583      -0.03513753       2.70955868       0.00000000
