10
Lattice="16.290000149 0.0 0.0 0.0 16.290000149 0.0 0.0 0.0 29.1751946751" Properties=species:S:1:pos:R:3:initial_magmoms:R:1 pbc="T T T"
Si       1.28888110       1.48996486      -1.28045320       0.00000000
Si       1.37303524      -1.35439948       1.36065814       0.00000000
Si      -1.38784285       1.36725229       1.35273999       0.00000000
Si      -1.16742286      -1.47528757      -1.44743101       0.00000000
Si       2.60330492       0.06121782      -2.57478970       0.00000000
Si      -2.52613105      -0.07123617      -2.76066487       0.00000000
Si      -2.65624417      -2.66484854      -0.00479932       0.00000000
Si       0.01987380      -2.66864411       2.76295804       0.00000000
Si       2.71591769       0.01298313       2.72561379       0.00000000
Si      -0.02394630       2.73466748       2.71441051       0.00000000
