10
Lattice="16.290000149 0.0 0.0 0.0 16.290000149 0.0 0.0 0.0 29.1751946751" Properties=species:S:1:pos:R:3:initial_magmoms:R:1 pbc="T T T"
Si      -1.40917575       1.14427477      -1.46325271       0.00000000
Si      -1.46272098      -1.17035506       1.41522451       0.00000000
Si       1.46468164      -1.26775297      -1.34914853       0.00000000
Si       1.19938270       1.50068368       1.40122041       0.00000000
H       -2.28339490       1.92192680      -0.49203966       0.00000000
Si       2.64970585       0.42806862      -2.54066348       0.00000000
Si      -0.07034951      -2.51983496       2.77546836       0.00000000
Si      -2.85792691      -2.48689658       0.04253743       0.00000000
Si       2.60296984       0.17073549       2.76425633       0.00000000
Si      -0.26134976       2.71466336      -2.72309597       0.00000000
