10
Lattice="16.290000149 0.0 0.0 0.0 16.290000149 0.0 0.0 0.0 29.1751946751" Properties=species:S:1:pos:R:3:initial_magmoms:R:1 pbc="T T T"
Si       2.30138606       0.06227667      -0.45034830       0.00000000
Si      -0.86201794       2.07606278      -0.79137716       0.00000000
Si      -0.14149494       0.42093360       2.35706398       0.00000000
Si      -0.92152531      -2.07914485      -0.81880184       0.00000000
H       -2.32253048       0.19681578       0.91755987       0.00000000
H       -1.01493217       2.87165010       0.48457081       0.00000000
Si      -3.60981516       0.15933249       0.10304679       0.00000000
Si      -2.99534007      -1.35731376      -1.65598405       0.00000000
Si       3.07190307       2.10825182       0.42875866       0.00000000
Si       2.06216741       0.04005711       3.16518770       0.00000000
