10
Lattice="16.290000149 0.0 0.0 0.0 16.290000149 0.0 0.0 0.0 29.1751946751" Properties=species:S:1:pos:R:3:initial_magmoms:R:1 pbc="T T T"
Si       1.35474157       1.39455570      -1.30705747       0.00000000
Si      -1.31688361       1.35202114       1.39235699       0.00000000
Si      -1.34071588      -1.32297607      -1.40795988       0.00000000
Si       1.38624643      -1.35555607       1.34086277       0.00000000
Si       2.67660992      -0.09246204      -2.51713660       0.00000000
Si       0.02508660      -2.71753040       2.67282711       0.00000000
Si      -0.02928942       2.72068415      -2.67015174       0.00000000
Si       2.71555931       2.67730877       0.10301761       0.00000000
Si      -2.70681158      -0.00733050       2.69476686       0.00000000
Si      -2.68910435       2.71375438       0.08014426       0.00000000
