10
Lattice="16.290000149 0.0 0.0 0.0 16.290000149 0.0 0.0 0.0 29.1751946751" Properties=species:S:1:pos:R:3:initial_magmoms:R:1 pbc="T T T"
Si       1.32241407       1.48763539      -1.22231433       0.00000000
Si       1.40358714      -1.32994819       1.36303592       0.00000000
Si      -1.34305350       1.45401283       1.30202184       0.00000000
Si      -1.19938270      -1.50068368      -1.40122041       0.00000000
Si      -2.66210368      -2.67103874       0.01400409       0.00000000
Si      -2.65275322       0.10388133       2.72426881       0.00000000
Si       2.78247049       0.29623365      -2.59229774       0.00000000
Si       0.06124226      -2.65807190       2.74865928       0.00000000
Si       0.05651327       2.57696399      -2.87768949       0.00000000
Si       0.05000867       2.75436210       2.71799615       0.00000000
