10
Lattice="16.290000149 0.0 0.0 0.0 16.290000149 0.0 0.0 0.0 29.1751946751" Properties=species:S:1:pos:R:3:initial_magmoms:R:1 pbc="T T T"
Si       1.36363591       1.35062020      -1.34885678       0.00000000
Si       1.37340991      -1.35189082       1.34558915       0.00000000
Si      -1.35176050       1.36124128       1.36029345       0.00000000
Si      -1.36938628      -1.36145305      -1.35232862       0.00000000
Si      -0.00245979      -2.67245597       2.70882930       0.00000000
Si      -0.02511918       2.69904125      -2.68248410       0.00000000
Si       2.66434355      -2.71982729      -0.06640274       0.00000000
Si       2.68239287      -0.01826109      -2.73243203       0.00000000
Si       2.72631071       2.69283314       0.02794984       0.00000000
Si      -2.68846090       0.01140300       2.73094410       0.00000000
