10
Lattice="16.290000149 0.0 0.0 0.0 16.290000149 0.0 0.0 0.0 29.1751946751" Properties=species:S:1:pos:R:3:initial_magmoms:R:1 pbc="T T T"
Si      -1.53142291      -1.32284575      -1.19195258       0.00000000
Si      -1.40460526       1.19852733       1.46074365       0.00000000
Si       1.38025171      -1.31391883       1.44303430       0.00000000
Si       0.78718168       1.49049918      -1.70648631       0.00000000
H        1.19132029      -2.09528498      -2.24415597       0.00000000
Si      -1.28663308       2.21233026      -2.54366852       0.00000000
Si      -0.16591365      -2.67120164      -2.51563116       0.00000000
Si      -2.57506295       0.22463910      -2.66235321       0.00000000
Si      -2.67350342      -0.38716443       2.64834912       0.00000000
Si       0.04808808       2.61974968       2.75267962       0.00000000
