10
Lattice="16.290000149 0.0 0.0 0.0 16.290000149 0.0 0.0 0.0 29.1751946751" Properties=species:S:1:pos:R:3:initial_magmoms:R:1 pbc="T T T"
Si       0.87421915      -0.77765203      -0.97121306       0.00000000
Si      -1.10001484       1.72405217       0.78332743       0.00000000
Si      -1.92785636      -0.27108189       1.87800728       0.00000000
Si      -1.32302494       2.23883246      -1.51145014       0.00000000
Si       2.28339490      -1.92192680       0.49203966       0.00000000
Si      -0.71889400      -1.87765058      -2.31916540       0.00000000
Si       2.02204514       0.79273657      -2.23105631       0.00000000
Si       0.82399708       2.54607815       1.88064472       0.00000000
Si      -0.50779188      -1.64359585       3.21445293       0.00000000
Si      -3.23990184      -1.71965387       0.51327920       0.00000000
