10
Lattice="16.290000149 0.0 0.0 0.0 16.290000149 0.0 0.0 0.0 29.1751946751" Properties=species:S:1:pos:R:3:initial_magmoms:R:1 pbc="T T T"
Si       1.32084045      -1.33581259      -1.40691541       0.00000000
Si       1.39193327       1.37591857       1.31069562       0.00000000
Si      -1.33959187       1.36575361      -1.37575630       0.00000000
Si      -1.35567010      -1.34700382       1.39381575       0.00000000
Si      -0.01231524       2.69483843       2.62349186       0.00000000
Si       2.65010609      -2.69524568      -0.04186640       0.00000000
Si      -2.69930189      -2.67413384      -0.01327471       0.00000000
Si      -2.72349254       2.70905960      -0.04008672       0.00000000
Si       2.67147857       0.02987586      -2.77065154       0.00000000
Si       0.03566907      -2.70397712       2.74325603       0.00000000
