10
Lattice="16.28999089631971 0.0 0.0 0.0 16.28999089631971 0.0 0.0 0.0 34.28971787722196" Properties=species:S:1:pos:R:3:initial_magmoms:R:1 pbc="T T T"
Si       0.82036440       0.65765988      -2.09171789       0.00000000
Si       1.99133847       0.65041083       1.15835738       0.00000000
Si      -1.87554915       1.54026837      -0.11865213       0.00000000
Si      -0.83025243      -2.02487306       1.14414428       0.00000000
Si       0.54568242       2.02851225       2.57686208       0.00000000
Si      -2.09210841      -1.48585977      -2.29008402       0.00000000
Si      -2.18588994      -0.69278112       2.60208904       0.00000000
Si       0.00371412      -1.19373120      -3.31356409       0.00000000
Si      -0.91492785       3.32351838       1.14786472       0.00000000
Si      -2.85079887       0.96449832      -2.32255640       0.00000000
