10
Lattice="16.28999089631971 0.0 0.0 0.0 16.28999089631971 0.0 0.0 0.0 34.28971787722196" Properties=species:S:1:pos:R:3:initial_magmoms:R:1 pbc="T T T"
Si      -1.35399222       1.35581833       1.35873083       0.00000000
Si       1.36089918       1.35335854      -1.35824392       0.00000000
Si       1.35739683      -1.35870746       1.35814790       0.00000000
Si      -1.34669430      -1.37507704      -1.37327311       0.00000000
Si      -0.02270826       2.71166761      -2.71281883       0.00000000
Si      -2.71351815       2.71161874      -0.00205738       0.00000000
Si      -2.71273460      -0.00160782       2.71543857       0.00000000
Si       2.71723716       2.71114633      -0.00044577       0.00000000
Si       0.00179190       2.71332919       2.71602149       0.00000000
Si      -2.71345625      -2.71626532       0.00147446       0.00000000
