10
Lattice="16.28999089631971 0.0 0.0 0.0 16.28999089631971 0.0 0.0 0.0 34.28971787722196" Properties=species:S:1:pos:R:3:initial_magmoms:R:1 pbc="T T T"
Si       1.35633798       1.35778779       1.35779815       0.00000000
Si      -1.36089918      -1.35335854       1.35824392       0.00000000
Si      -1.38360744       1.35830907      -1.35457491       0.00000000
Si       1.35563751      -1.33209194      -1.45794476       0.00000000
Si       2.18588994       0.69278112      -2.60208904       0.00000000
Si      -2.31827877      -0.33847362      -2.63410537       0.00000000
Si       0.31034079       2.23304949      -2.72074117       0.00000000
Si      -0.42727041      -2.10046192      -2.85985463       0.00000000
Si       2.70146844      -2.70000953      -0.00789350       0.00000000
Si       2.71197549       0.00280188       2.71639182       0.00000000
