10
Lattice="16.28999089631971 0.0 0.0 0.0 16.28999089631971 0.0 0.0 0.0 34.28971787722196" Properties=species:S:1:pos:R:3:initial_magmoms:R:1 pbc="T T T"
Si      -1.78290792      -0.76836998      -1.40190988       0.00000000
Si      -1.35563751       1.33209194       1.45794476       0.00000000
Si       1.34583093      -1.36791758       1.45005126       0.00000000
Si       0.83025243       2.02487306      -1.14414428       0.00000000
Si      -1.26185598       0.53901329      -3.43422830       0.00000000
Si      -2.58356142      -2.65588643      -0.05487730       0.00000000
Si       2.63094903      -2.73857447       0.03934747       0.00000000
Si      -2.73924495       2.69040101       0.10336984       0.00000000
Si       2.82159090       2.67528389       0.01421310       0.00000000
Si       0.00070047       2.68987973       2.81574290       0.00000000
