10
Lattice="16.28999089631971 0.0 0.0 0.0 16.28999089631971 0.0 0.0 0.0 34.28971787722196" Properties=species:S:1:pos:R:3:initial_magmoms:R:1 pbc="T T T"
Si       1.35741312      -1.35596176      -1.36332565       0.00000000
Si      -1.35881406       1.35847907      -1.36366855       0.00000000
Si      -1.36129014      -1.36712041       1.35910802       0.00000000
Si       1.36935369       1.38500082       1.37117800       0.00000000
Si      -2.71112841      -2.71192507      -0.00613786       0.00000000
Si       2.71709055      -2.70938383      -0.00384045       0.00000000
Si      -2.71241532       2.72014551      -0.00267460       0.00000000
Si      -0.00004887      -2.71241377      -2.72020484       0.00000000
Si       2.71309950       2.72144871      -0.00747516       0.00000000
Si      -2.71450044       0.00212697      -2.72054774       0.00000000
