10
Lattice="16.28999089631971 0.0 0.0 0.0 16.28999089631971 0.0 0.0 0.0 34.28971787722196" Properties=species:S:1:pos:R:3:initial_magmoms:R:1 pbc="T T T"
Si       1.72815723       1.60463016       0.36792888       0.00000000
Si      -2.36444463       0.55667817      -0.09450252       0.00000000
Si      -0.09023031      -0.67904865      -2.34181759       0.00000000
Si       0.49546035      -1.38036573       2.04397694       0.00000000
Si       1.52836038      -2.37124408      -2.45442509       0.00000000
Si      -0.41650272      -3.48368329       1.29553484       0.00000000
Si       1.04236452       2.93961195       2.16940879       0.00000000
Si      -3.49708833      -1.56641382       0.23395888       0.00000000
Si       2.40212340       2.59134804      -1.68420901       0.00000000
Si      -2.91322215       2.42623260       1.24159709       0.00000000
