10
Lattice="16.28999089631971 0.0 0.0 0.0 16.28999089631971 0.0 0.0 0.0 34.28971787722196" Properties=species:S:1:pos:R:3:initial_magmoms:R:1 pbc="T T T"
Si       1.61859069      -1.69219543      -0.11260750       0.00000000
Si      -2.04128361      -0.93832029      -0.80258559       0.00000000
Si       0.09023031       0.67904865       2.34181759       0.00000000
Si       0.35543151       1.68381585      -1.73077448       0.00000000
Si      -2.27421432       1.23572682       2.24731508       0.00000000
Si      -1.63313766      -0.81362034      -3.08830517       0.00000000
Si       3.66371874      -0.59021928       0.29914367       0.00000000
Si       1.22349303      -3.11994944       1.78022028       0.00000000
Si       2.53895940       1.39632993      -2.64881361       0.00000000
Si      -1.31359302       1.49477040      -3.38933477       0.00000000
