10
Lattice="16.28999089631971 0.0 0.0 0.0 16.28999089631971 0.0 0.0 0.0 34.28971787722196" Properties=species:S:1:pos:R:3:initial_magmoms:R:1 pbc="T T T"
Si      -1.80665874      -0.17642070      -1.58384295       0.00000000
Si       1.84922451      -1.61238420      -0.01093843       0.00000000
Si       1.08409950       2.23647039      -0.01968231       0.00000000
Si      -1.02653064      -1.02374505       2.02028273       0.00000000
Si       0.27464940      -0.94651416      -2.59607599       0.00000000
Si       0.62082819      -2.69097768       1.73619226       0.00000000
Si       3.82720518      -0.31672647       0.58680027       0.00000000
Si       2.40376869       2.12975460      -2.19179999       0.00000000
Si      -2.75442071       1.92989259      -2.30066991       0.00000000
Si       2.12587758      -2.62164744      -2.31472870       0.00000000
