10
Lattice="16.28999089631971 0.0 0.0 0.0 16.28999089631971 0.0 0.0 0.0 34.28971787722196" Properties=species:S:1:pos:R:3:initial_magmoms:R:1 pbc="T T T"
Si      -1.93880322      -0.93797820      -0.91385578       0.00000000
Si       1.88335206      -1.19993769      -0.80721470       0.00000000
Si       0.45840060       2.20608954      -0.84297890       0.00000000
Si      -0.54760464      -0.10697643       2.34634384       0.00000000
Si      -2.43524097      -2.95630920       0.34334314       0.00000000
Si       2.87340939       0.05341491      -2.55928310       0.00000000
Si       1.73742624       3.34953351       0.86540438       0.00000000
Si      -1.99819656       1.61134164       2.89899153       0.00000000
Si       1.57711635       1.95398550      -3.04098533       0.00000000
Si       1.25889120       0.57801807       3.69345045       0.00000000
