10
Lattice="16.28999089631971 0.0 0.0 0.0 16.28999089631971 0.0 0.0 0.0 34.28971787722196" Properties=species:S:1:pos:R:3:initial_magmoms:R:1 pbc="T T T"
Si       0.40814595       0.12469995      -2.28571958       0.00000000
Si      -0.77437773      -2.14691516       0.68267437       0.00000000
Si       2.04128361       0.93832029       0.80258559       0.00000000
Si      -1.97618877       1.28036142      -0.42797021       0.00000000
Si      -1.06697871      -1.58413245      -2.98485303       0.00000000
Si      -1.56413322       2.99284767       1.13193851       0.00000000
Si       0.72769059       2.43309069      -2.58674918       0.00000000
Si      -1.36557441       0.05095512       3.37836205       0.00000000
Si       2.39671512       2.62213614      -0.92818889       0.00000000
Si      -1.11081510      -3.29104331      -1.36966926       0.00000000
