10
Lattice="16.28999089631971 0.0 0.0 0.0 16.28999089631971 0.0 0.0 0.0 34.28971787722196" Properties=species:S:1:pos:R:3:initial_magmoms:R:1 pbc="T T T"
Si      -1.36016613       1.35355239      -1.36140543       0.00000000
Si       1.33626870       1.36000323       1.38067626       0.00000000
Si       1.35723393      -1.36135530      -1.36054819       0.00000000
Si      -1.36668213      -1.36184400       1.37587570       0.00000000
Si       2.47676418      -0.06501339       2.89415668       0.00000000
Si      -2.71243161       2.71267596      -0.00432051       0.00000000
Si      -0.00135207       2.71218726      -2.71838748       0.00000000
Si       2.71578735       2.71521720      -0.00202309       0.00000000
Si       2.71401174      -0.00273672      -2.71866180       0.00000000
Si      -2.71357191      -2.71976211       0.00137159       0.00000000
