10
Lattice="16.28999089631971 0.0 0.0 0.0 16.28999089631971 0.0 0.0 0.0 34.28971787722196" Properties=species:S:1:pos:R:3:initial_magmoms:R:1 pbc="T T T"
Si      -0.49911745       1.63090788      -1.66353230       0.00000000
Si       2.37274438      -0.11020708      -0.26238507       0.00000000
Si      -0.44897846       1.59897948       1.73351766       0.00000000
Si      -0.56228845      -2.37373516       0.22960408       0.00000000
Si       2.03630701      -1.25433523      -2.31472870       0.00000000
Si       2.71822270      -0.10626490       2.25262999       0.00000000
Si      -1.20247797       0.06031014       3.32504151       0.00000000
Si       0.83425162      -1.25764210       3.21730316       0.00000000
Si       1.78154770       2.08766319       2.43330261       0.00000000
Si      -2.49367224       2.61658320      -0.87263952       0.00000000
