10
Lattice="16.28999089631971 0.0 0.0 0.0 16.28999089631971 0.0 0.0 0.0 34.28971787722196" Properties=species:S:1:pos:R:3:initial_magmoms:R:1 pbc="T T T"
Si       1.40828679       1.53986112      -1.11379924       0.00000000
Si       1.06531713      -1.23129594       1.76208101       0.00000000
Si      -1.42099299       1.50780240       1.23333326       0.00000000
Si      -1.27902564      -1.14344397      -1.70838328       0.00000000
Si       1.29984426       0.58218831       3.26054252       0.00000000
Si      -0.24661431       3.03173190      -1.90050868       0.00000000
Si      -3.48620661       0.46033911       1.29656354       0.00000000
Si      -3.10586769       0.27267831      -2.21580281       0.00000000
Si       2.22052248       3.10879989       0.46565463       0.00000000
Si      -1.73742624      -3.34953351      -0.86540438       0.00000000
