10
Lattice="16.28999089631971 0.0 0.0 0.0 16.28999089631971 0.0 0.0 0.0 34.28971787722196" Properties=species:S:1:pos:R:3:initial_magmoms:R:1 pbc="T T T"
Si      -1.72182042      -1.24255233       0.86790753       0.00000000
Si       2.13359904      -0.25068681       0.94996287       0.00000000
Si       0.55658043      -1.02872979      -2.05981879       0.00000000
Si      -1.01229318       2.16101511       0.22123738       0.00000000
Si      -3.24237789      -0.15337035      -0.55131039       0.00000000
Si       1.60045992      -2.99892384      -1.22805264       0.00000000
Si       0.25562268       3.37002633      -1.35602194       0.00000000
Si       2.33495973       2.32497396      -1.62732234       0.00000000
Si       3.31024203       1.65600882       0.37890159       0.00000000
Si       2.10043260       0.51148971      -3.12578385       0.00000000
