10
Lattice="16.28999089631971 0.0 0.0 0.0 16.28999089631971 0.0 0.0 0.0 34.28971787722196" Properties=species:S:1:pos:R:3:initial_magmoms:R:1 pbc="T T T"
Si       1.22624604      -1.43236341       1.49711392       0.00000000
Si      -1.57416786      -1.28273976      -1.32988771       0.00000000
Si       0.80065350       1.88751645      -1.34703258       0.00000000
Si      -1.47966957       1.25954280       1.49779286       0.00000000
Si      -2.44462401       0.71961075      -2.17725570       0.00000000
Si       2.58356142       2.65588643       0.05487730       0.00000000
Si       2.54718585      -2.84874633       0.12235607       0.00000000
Si       2.58378948      -0.08289981       2.86931719       0.00000000
Si      -2.83909288       2.61753326       0.11911226       0.00000000
Si      -0.13297527       2.63461984       2.87106597       0.00000000
