10
Lattice="16.28999089631971 0.0 0.0 0.0 16.28999089631971 0.0 0.0 0.0 34.28971787722196" Properties=species:S:1:pos:R:3:initial_magmoms:R:1 pbc="T T T"
Si      -0.93467133      -1.69678269      -1.27953045       0.00000000
Si       1.69394823       0.87474042      -1.36616626       0.00000000
Si      -1.34869797       1.37492487       1.34722662       0.00000000
Si       1.38360744      -1.35830907       1.35457491       0.00000000
Si      -1.51941717      -0.46661076      -3.28759167       0.00000000
Si       0.71869851       0.29897037      -3.57007052       0.00000000
Si       2.65456953       2.65799043      -0.09964940       0.00000000
Si      -2.69080989      -0.00004887       2.71076145       0.00000000
Si      -2.68340935      -2.72875419      -0.03913488       0.00000000
Si       0.02270826      -2.71166761       2.71281883       0.00000000
