10
Lattice="16.28999089631971 0.0 0.0 0.0 16.28999089631971 0.0 0.0 0.0 34.28971787722196" Properties=species:S:1:pos:R:3:initial_magmoms:R:1 pbc="T T T"
Si      -1.38526902      -1.84388139      -0.52823340       0.00000000
Si      -1.07365761       2.09407950      -0.72296482       0.00000000
Si      -0.50169942       0.25663266       2.41687783       0.00000000
Si       2.49787602      -0.17039340      -1.04405391       0.00000000
Si      -1.78487901      -0.86962536      -2.82880044       0.00000000
Si       2.93079906      -1.70030133       0.75437421       0.00000000
Si       0.97826337       3.31607941      -1.01243878       0.00000000
Si      -3.04642548      -1.75485654       1.44191773       0.00000000
Si      -2.23650297       1.82203650       2.48946920       0.00000000
Si       0.06527403      -3.81637233      -0.48348529       0.00000000
