10
Lattice="16.28999089631971 0.0 0.0 0.0 16.28999089631971 0.0 0.0 0.0 34.28971787722196" Properties=species:S:1:pos:R:3:initial_magmoms:R:1 pbc="T T T"
Si      -2.06521362      -1.04746329       0.06323028       0.00000000
Si       0.00798210       2.10918033      -1.12065719       0.00000000
Si       0.64150020       0.11943828       2.29850965       0.00000000
Si       1.42099299      -1.50780240      -1.23333326       0.00000000
Si       2.72083725      -0.92561409       2.02720925       0.00000000
Si       2.82927978       0.03205872      -2.34713250       0.00000000
Si       1.17437868       1.52392950      -3.13384194       0.00000000
Si      -1.61644041       3.34052514       0.31035641       0.00000000
Si       2.48631012      -2.73909834       0.52874775       0.00000000
Si      -3.34055772      -0.77426370      -1.84550794       0.00000000
