10
Lattice="16.28999089631971 0.0 0.0 0.0 16.28999089631971 0.0 0.0 0.0 34.28971787722196" Properties=species:S:1:pos:R:3:initial_magmoms:R:1 pbc="T T T"
Si       1.70845122      -0.98341101      -1.16725694       0.00000000
Si      -1.68479555      -1.57204039      -0.40225291       0.00000000
Si      -0.78410449       2.11256865      -0.67091299       0.00000000
Si       0.89652504      -0.63803043       2.10885312       0.00000000
Si      -3.46508078      -0.32193927       0.54678415       0.00000000
Si      -0.71541445      -3.40678376       0.64787029       0.00000000
Si      -3.07574978       1.70136018      -0.61982129       0.00000000
Si       1.33497039      -3.30402644      -0.51763787       0.00000000
Si       3.64202535      -0.18384894      -0.16064742       0.00000000
Si      -0.37402655      -2.47600018       2.71427271       0.00000000
