10
Lattice="16.28999089631971 0.0 0.0 0.0 16.28999089631971 0.0 0.0 0.0 34.28971787722196" Properties=species:S:1:pos:R:3:initial_magmoms:R:1 pbc="T T T"
Si       1.25167473      -1.36226754       1.43600618       0.00000000
Si      -1.99133847      -0.65041083      -1.15835738       0.00000000
Si      -1.44565605       1.37810142       1.41850470       0.00000000
Si       1.94028561       0.87454494      -1.38248474       0.00000000
Si      -1.17097407       0.00724905      -3.25007527       0.00000000
Si       1.13150340      -0.23581404      -3.44281788       0.00000000
Si       2.64381813      -2.67330792      -0.01262891       0.00000000
Si       2.60819190       0.01591533       2.79888950       0.00000000
Si      -2.82159090      -2.67528389      -0.01421310       0.00000000
Si      -0.10536372      -2.69582558       2.80279853       0.00000000
