10
Lattice="16.28999089631971 0.0 0.0 0.0 16.28999089631971 0.0 0.0 0.0 34.28971787722196" Properties=species:S:1:pos:R:3:initial_magmoms:R:1 pbc="T T T"
Si      -0.52108452      -1.58177529      -1.60225654       0.00000000
Si       2.23811568       0.76558113      -0.28247885       0.00000000
Si      -1.12942154       2.06599554      -0.55185903       0.00000000
Si       0.58474584      -1.23017193       2.00806122       0.00000000
Si       2.99680614      -1.68477696      -0.25000647       0.00000000
Si      -2.43689831       1.99334214       1.61576670       0.00000000
Si       2.12734368       0.94695399      -2.70504878       0.00000000
Si       0.66282381       3.54012651       0.11157880       0.00000000
Si       1.68767658      -2.50523747      -2.00834990       0.00000000
Si       1.51941717       0.46661076       3.28759167       0.00000000
