10
Lattice="16.28999089631971 0.0 0.0 0.0 16.28999089631971 0.0 0.0 0.0 34.28971787722196" Properties=species:S:1:pos:R:3:initial_magmoms:R:1 pbc="T T T"
Si      -1.61927487      -0.24748944      -1.70049664       0.00000000
Si       1.89649809      -1.56472848      -0.00668650       0.00000000
Si      -1.59347151      -1.07158131       1.59587865       0.00000000
Si       0.81088362       2.26137617      -1.49938733       0.00000000
Si      -0.31398975      -1.64050956      -3.02229742       0.00000000
Si       0.92994723      -3.15139077      -1.48340831       0.00000000
Si      -3.45134601      -1.24031313      -0.65496827       0.00000000
Si       3.57570387      -0.42424929      -1.41410876       0.00000000
Si       2.46467700       1.26725611       2.78676122       0.00000000
Si      -0.64395999      -0.93942054       3.78524407       0.00000000
