10
Lattice="16.28999089631971 0.0 0.0 0.0 16.28999089631971 0.0 0.0 0.0 34.28971787722196" Properties=species:S:1:pos:R:3:initial_magmoms:R:1 pbc="T T T"
Si       1.35692442      -1.35705474       1.35787359       0.00000000
Si      -1.35827649       1.35772263       1.35742782       0.00000000
Si      -1.35931905      -1.35690813      -1.35742782       0.00000000
Si       1.35679410       1.35949824      -1.35818219       0.00000000
Si       0.00057015      -2.71234364      -2.71475277       0.00000000
Si      -0.00159642       2.71464705       2.71331260       0.00000000
Si       2.71409319       0.00061902       2.71392982       0.00000000
Si       2.71406061      -2.71469592       0.00006858       0.00000000
Si      -0.00182448      -2.71475131       2.71413556       0.00000000
Si      -2.71516833      -0.00211770       2.71420414       0.00000000
