10
Lattice="16.28999089631971 0.0 0.0 0.0 16.28999089631971 0.0 0.0 0.0 34.28971787722196" Properties=species:S:1:pos:R:3:initial_magmoms:R:1 pbc="T T T"
Si       1.46105010       1.26074826       1.30019825       0.00000000
Si       1.04461254       0.02818170      -2.13865090       0.00000000
Si      -1.41555213      -1.36731744       1.34957547       0.00000000
Si      -2.06172756       1.10537424      -0.54033768       0.00000000
Si       2.50781292      -2.05716636      -0.07917500       0.00000000
Si       1.95724350      -0.39221433       2.89501392       0.00000000
Si      -2.25127800       2.30060412       1.42511576       0.00000000
Si      -1.49529168      -3.18826251      -0.09683422       0.00000000
Si       2.69192250       2.13387597      -0.81198097       0.00000000
Si      -0.07390773       2.70933651       2.34795545       0.00000000
