10
Lattice="16.28999089631971 0.0 0.0 0.0 16.28999089631971 0.0 0.0 0.0 34.28971787722196" Properties=species:S:1:pos:R:3:initial_magmoms:R:1 pbc="T T T"
Si      -0.16780329      -1.32642954      -1.91127565       0.00000000
Si      -1.96683831       1.29334455      -0.14689723       0.00000000
Si       1.68370182       1.65053538      -0.12330589       0.00000000
Si      -0.18582003      -1.21445208       2.03502731       0.00000000
Si       1.77481179       1.79367561       2.33197644       0.00000000
Si      -2.35945989      -2.13377823      -1.41503458       0.00000000
Si      -0.66399669       0.32653305      -3.50609132       0.00000000
Si      -3.58720461      -0.42746589      -0.15029192       0.00000000
Si       0.26490798       0.47540736       3.61797873       0.00000000
Si       3.49881507       0.39778551      -1.17387486       0.00000000
