10
Lattice="16.28999089631971 0.0 0.0 0.0 16.28999089631971 0.0 0.0 0.0 34.28971787722196" Properties=species:S:1:pos:R:3:initial_magmoms:R:1 pbc="T T T"
Si       0.16780329       1.32642954       1.91127565       0.00000000
Si      -0.49619340       1.65296259      -1.59481567       0.00000000
Si       1.78474869      -1.13841036      -1.07241153       0.00000000
Si      -2.19165660      -0.80734869       0.49624107       0.00000000
Si       0.55056942      -1.66495203      -2.97418892       0.00000000
Si      -1.95724350       0.39221433      -2.89501392       0.00000000
Si      -1.79903502       2.61977409       1.76437842       0.00000000
Si      -2.03115123       3.10155084      -0.54705846       0.00000000
Si       3.47175738       0.49762692      -1.35650200       0.00000000
Si      -3.37279563      -0.97510311      -1.54543845       0.00000000
