10
Lattice="16.28999089631971 0.0 0.0 0.0 16.28999089631971 0.0 0.0 0.0 34.28971787722196" Properties=species:S:1:pos:R:3:initial_magmoms:R:1 pbc="T T T"
Si      -1.39947390       1.83273903       0.20491547       0.00000000
Si      -0.86798007      -1.42397406      -1.64120968       0.00000000
Si       1.92818214       1.18086210      -0.82895439       0.00000000
Si      -0.39692214      -1.07026929       2.17054035       0.00000000
Si       0.88653438       2.08709109       2.78864715       0.00000000
Si      -2.69939961      -0.82720620       2.36328297       0.00000000
Si      -3.15532413      -1.63703097      -1.03153816       0.00000000
Si       3.18795300      -0.52833357      -1.91600764       0.00000000
Si       0.78571557      -3.22900380      -1.77511111       0.00000000
Si       2.72248254       2.35928070       1.15573559       0.00000000
