10
Lattice="16.28999089631971 0.0 0.0 0.0 16.28999089631971 0.0 0.0 0.0 34.28971787722196" Properties=species:S:1:pos:R:3:initial_magmoms:R:1 pbc="T T T"
Si      -1.73802897      -1.05847533       1.11057600       0.00000000
Si       1.72792917      -1.56846636      -0.04485098       0.00000000
Si       0.44849628       1.83182679       1.46252586       0.00000000
Si      -0.64534464       0.94703544      -2.10501267       0.00000000
Si      -1.77416019       2.53185696       1.64745042       0.00000000
Si       3.23783298      -0.25019811      -1.33085327       0.00000000
Si       1.73916927       3.22291134       0.09350811       0.00000000
Si       0.54734400       3.11935581      -1.97392300       0.00000000
Si      -2.95080318       0.62516133       2.21851170       0.00000000
Si      -2.98396962       1.38733785      -1.85723503       0.00000000
