10
Lattice="16.28999089631971 0.0 0.0 0.0 16.28999089631971 0.0 0.0 0.0 34.28971787722196" Properties=species:S:1:pos:R:3:initial_magmoms:R:1 pbc="T T T"
Si       1.09638216       2.17719108       0.41524872       0.00000000
Si       1.11847140      -1.90122219      -1.14490003       0.00000000
Si      -0.37227537      -0.66122739       2.40889521       0.00000000
Si      -2.07700758       0.52035147      -1.41962940       0.00000000
Si      -2.21978943       0.99676881       2.27611845       0.00000000
Si      -1.67873337      -0.83600280      -3.25083852       0.00000000
Si       0.54392310      -1.53603297      -3.43576307       0.00000000
Si      -0.06758721      -3.78980334      -0.36220249       0.00000000
Si       1.65472191       0.01143558       3.49438279       0.00000000
Si       0.28369035       3.76794216      -1.05622677       0.00000000
