10
Lattice="16.28999089631971 0.0 0.0 0.0 16.28999089631971 0.0 0.0 0.0 34.28971787722196" Properties=species:S:1:pos:R:3:initial_magmoms:R:1 pbc="T T T"
Si      -2.06348688       1.14098974       0.10341785       0.00000000
Si       0.94951152       0.13216077       2.18936542       0.00000000
Si      -0.54387423      -2.34548307       0.07180271       0.00000000
Si       1.59347151       1.07158131      -1.59587865       0.00000000
Si      -1.85787450      -0.16873182      -2.25084692       0.00000000
Si      -0.02580336       0.82409186      -3.29637529       0.00000000
Si      -1.66780278       2.23974698       2.11276215       0.00000000
Si       0.33306534       3.45169529       1.68235737       0.00000000
Si       2.13139989       2.11068294       2.44530402       0.00000000
Si       3.48996960      -0.49314717      -1.60256515       0.00000000
