10
Lattice="16.28999089631971 0.0 0.0 0.0 16.28999089631971 0.0 0.0 0.0 34.28971787722196" Properties=species:S:1:pos:R:3:initial_magmoms:R:1 pbc="T T T"
Si      -1.22003955      -1.77634305       0.82261079       0.00000000
Si      -1.48225968       1.67568714      -0.69848194       0.00000000
Si       1.32823773       0.10485873       2.00924143       0.00000000
Si       1.59580098       0.12276144      -1.92471723       0.00000000
Si       2.79987633       1.94782788      -1.02070260       0.00000000
Si       0.50414292      -3.44463453       0.89088166       0.00000000
Si      -2.54272239      -2.33186463      -1.01761653       0.00000000
Si       3.18678012       1.30021893       1.22434935       0.00000000
Si      -0.30037131       3.65420931      -0.44254335       0.00000000
Si       2.97220824      -1.88134839      -1.27698410       0.00000000
