10
Lattice="16.28999089631971 0.0 0.0 0.0 16.28999089631971 0.0 0.0 0.0 34.28971787722196" Properties=species:S:1:pos:R:3:initial_magmoms:R:1 pbc="T T T"
Si       1.12352130      -1.50314346      -1.38266507       0.00000000
Si      -1.97486928      -1.00898631       0.81489560       0.00000000
Si       0.23065011       1.84272384      -1.49935304       0.00000000
Si       1.87307307       0.75139019       1.32865873       0.00000000
Si       2.52493371       1.58181831      -0.83241766       0.00000000
Si      -1.09892340       3.22161533      -0.20302953       0.00000000
Si      -1.28223477      -2.05788312       2.76320417       0.00000000
Si       2.98206369      -0.30778326      -2.16755715       0.00000000
Si      -0.71731386       3.00443705       2.09438285       0.00000000
Si       1.93267818      -3.20197869       0.14768590       0.00000000
