10
Lattice="16.28999089631971 0.0 0.0 0.0 16.28999089631971 0.0 0.0 0.0 34.28971787722196" Properties=species:S:1:pos:R:3:initial_magmoms:R:1 pbc="T T T"
Si      -0.74925855       0.24853653       2.18487346       0.00000000
Si       0.26388171       2.26250900      -0.57935940       0.00000000
Si      -2.02082337      -0.46584513      -1.15107218       0.00000000
Si       1.69738542      -1.52557479      -0.89256186       0.00000000
Si      -3.50101422      -0.86744250       0.69453862       0.00000000
Si       2.27678814       2.93987978       0.44634951       0.00000000
Si       0.70235964       2.43664910      -2.88719586       0.00000000
Si       0.06343326      -1.34221455       3.65634895       0.00000000
Si      -3.07415106       0.62326878       2.45589955       0.00000000
Si       3.47612310      -1.90333989       0.75307120       0.00000000
