10
Lattice="16.28999089631971 0.0 0.0 0.0 16.28999089631971 0.0 0.0 0.0 34.28971787722196" Properties=species:S:1:pos:R:3:initial_magmoms:R:1 pbc="T T T"
Si       0.39827421      -1.35635427      -1.83120912       0.00000000
Si      -1.91901087       0.00993690       1.38218501       0.00000000
Si      -0.39105774       2.13161166      -1.12693221       0.00000000
Si       2.07700758      -0.52035147       1.41962940       0.00000000
Si      -0.77836878      -3.26304990      -1.26014784       0.00000000
Si       0.03580542       3.62232294       0.63442871       0.00000000
Si      -0.14278185       0.47641734       3.69574786       0.00000000
Si       2.62093068      -2.05638444      -2.01613367       0.00000000
Si      -3.91443813       0.35165223       0.05671523       0.00000000
Si      -0.57700809      -0.68738913      -3.83743305       0.00000000
