10
Lattice="16.28999089631971 0.0 0.0 0.0 16.28999089631971 0.0 0.0 0.0 34.28971787722196" Properties=species:S:1:pos:R:3:initial_magmoms:R:1 pbc="T T T"
Si       0.81269181      -1.59075108       1.47147549       0.00000000
Si       0.43725618       1.84905739       1.33414509       0.00000000
Si       0.74925855      -0.24853653      -2.18487346       0.00000000
Si      -2.32489251       0.37473225       0.27102608       0.00000000
Si       0.13681971       0.19518678       3.13394481       0.00000000
Si      -2.75175567      -1.11597903      -1.49033484       0.00000000
Si       1.01314026       2.01397247      -2.76423286       0.00000000
Si      -1.27156482      -0.71438166      -3.33594565       0.00000000
Si       3.14844975      -1.67901030       0.94598527       0.00000000
Si       2.73528648       2.54435858       0.92407412       0.00000000
