10
Lattice="16.28999089631971 0.0 0.0 0.0 16.28999089631971 0.0 0.0 0.0 34.28971787722196" Properties=species:S:1:pos:R:3:initial_magmoms:R:1 pbc="T T T"
Si       1.96076933      -0.65443415      -1.04864843       0.00000000
Si       1.56630046       1.24348835       1.24771952       0.00000000
Si      -1.26877923      -1.56551756       1.23290293       0.00000000
Si      -1.23981561       0.13986366      -2.03636431       0.00000000
Si       0.93865653       0.08588674      -2.99757422       0.00000000
Si      -2.52045396      -0.10103840       2.62861524       0.00000000
Si       0.20072538       2.63247149       2.61747107       0.00000000
Si      -2.02999464      -2.13040589      -2.48055356       0.00000000
Si      -1.96773426      -3.29975096      -0.26495649       0.00000000
Si       0.19779318      -2.80275935       2.63851468       0.00000000
