10
Lattice="16.28999089631971 0.0 0.0 0.0 16.28999089631971 0.0 0.0 0.0 34.28971787722196" Properties=species:S:1:pos:R:3:initial_magmoms:R:1 pbc="T T T"
Si      -1.35935163       1.35565380      -1.36373713       0.00000000
Si       1.35558864      -1.36013029      -1.36322279       0.00000000
Si       1.35374787       1.34827443       1.39473505       0.00000000
Si      -1.36565586      -1.36639868       1.39473505       0.00000000
Si       2.71053409      -2.71423144      -0.00102869       0.00000000
Si       2.71527388       2.71223613      -0.00192023       0.00000000
Si      -2.71275741      -2.71637993      -0.00253744       0.00000000
Si      -2.71624347       2.71521720      -0.00435480       0.00000000
Si      -0.00125433       2.71318095      -2.71989623       0.00000000
Si       2.71355413      -0.00190593      -2.71969049       0.00000000
