10
Lattice="16.28999089631971 0.0 0.0 0.0 16.28999089631971 0.0 0.0 0.0 34.28971787722196" Properties=species:S:1:pos:R:3:initial_magmoms:R:1 pbc="T T T"
Si       0.75349951       1.53866934      -1.59152385       0.00000000
Si      -0.28797462       0.94350768       2.15771599       0.00000000
Si      -1.79460414      -1.51282951      -0.38857130       0.00000000
Si       2.03672960      -1.31795224      -0.10773835       0.00000000
Si       0.68140648      -0.89123569       3.20783919       0.00000000
Si       2.73179132      -0.78847837       2.04233103       0.00000000
Si       1.20247797      -0.06031014      -3.32504151       0.00000000
Si      -3.26339199      -0.14572619      -1.63668344       0.00000000
Si       2.98402568       2.02735305      -0.89173890       0.00000000
Si       3.10527215       1.53213705       1.39271196       0.00000000
