10
Lattice="16.28999089631971 0.0 0.0 0.0 16.28999089631971 0.0 0.0 0.0 34.28971787722196" Properties=species:S:1:pos:R:3:initial_magmoms:R:1 pbc="T T T"
Si       1.64735883      -1.66723263      -0.28409047       0.00000000
Si      -1.89445695      -1.41348330       0.03483837       0.00000000
Si      -0.14802723       0.91085535       2.17739830       0.00000000
Si       1.02653064       1.02374505      -2.02028273       0.00000000
Si      -1.05652053      -2.81996190       1.87468850       0.00000000
Si       2.87575515      -0.58863915      -2.03122115       0.00000000
Si      -0.64446498      -1.10747565       3.43459722       0.00000000
Si      -2.04792341       2.38602888       2.00529811       0.00000000
Si      -0.78012810       0.84732435      -3.60412568       0.00000000
Si       3.31638336      -1.47818718       1.37446982       0.00000000
