10
Lattice="16.28999089631971 0.0 0.0 0.0 16.28999089631971 0.0 0.0 0.0 34.28971787722196" Properties=species:S:1:pos:R:3:initial_magmoms:R:1 pbc="T T T"
Si       1.70274224       1.45238382      -0.73397182       0.00000000
Si       0.92527267      -1.67143545       1.49228936       0.00000000
Si      -0.19486098      -1.22658813      -2.09390279       0.00000000
Si      -1.81511325       1.25274987       1.05056896       0.00000000
Si       0.87323264       3.27341034       0.48722287       0.00000000
Si       3.60263843      -0.02278971      -0.56187163       0.00000000
Si      -3.49881507      -0.39778551       1.17387486       0.00000000
Si       3.10620068      -2.04112071       0.69532729       0.00000000
Si       1.30660854       2.48186295       2.63314320       0.00000000
Si      -1.88186967      -2.86262541      -1.80981232       0.00000000
