10
Lattice="16.28999089631971 0.0 0.0 0.0 16.28999089631971 0.0 0.0 0.0 34.28971787722196" Properties=species:S:1:pos:R:3:initial_magmoms:R:1 pbc="T T T"
Si       0.17355366       2.31910956      -0.07228277       0.00000000
Si       1.43400870       0.18603180       1.87870040       0.00000000
Si      -0.79430040      -1.17841860      -1.98468998       0.00000000
Si      -1.83594816      -0.27218961       1.63291157       0.00000000
Si      -0.40840659       0.97163334       3.11964599       0.00000000
Si      -3.30118479       1.12998843       0.52741045       0.00000000
Si       2.14980759       2.54140290       1.41318293       0.00000000
Si      -2.11512618       3.01856958      -0.25528709       0.00000000
Si       1.33068123       2.77892739      -2.04764594       0.00000000
Si      -2.72248254      -2.35928070      -1.15573559       0.00000000
