10
Lattice="16.28999089631971 0.0 0.0 0.0 16.28999089631971 0.0 0.0 0.0 34.28971787722196" Properties=species:S:1:pos:R:3:initial_magmoms:R:1 pbc="T T T"
Si      -1.70228871      -1.01418282       1.23953970       0.00000000
Si       1.95604523       1.20646998       0.48009061       0.00000000
Si      -1.11461067       1.52047602      -1.41661191       0.00000000
Si       1.02000228      -1.96099020      -0.83577805       0.00000000
Si       0.58662638      -1.16944281      -2.98169837       0.00000000
Si       2.58011513       0.23407101       2.46587786       0.00000000
Si       3.50605502       0.28220796      -0.95496918       0.00000000
Si      -2.01060954      -3.04696305       0.03693005       0.00000000
Si       2.23071092       0.55540755      -2.86370739       0.00000000
Si       0.15947910      -3.65334201       0.52655320       0.00000000
