10
Lattice="16.28999089631971 0.0 0.0 0.0 16.28999089631971 0.0 0.0 0.0 34.28971787722196" Properties=species:S:1:pos:R:3:initial_magmoms:R:1 pbc="T T T"
Si       1.35783666       1.35606105       1.35753069       0.00000000
Si      -1.35786924      -1.35876519       1.35763356       0.00000000
Si      -1.36023129       1.35718506      -1.35735924       0.00000000
Si       1.35799956      -1.35853713      -1.35903944       0.00000000
Si      -2.71461447       2.71239544       0.00120014       0.00000000
Si       0.00001629       2.71351725       2.71550715       0.00000000
Si       2.71498211      -0.00138465       2.71499280       0.00000000
Si       2.71119357       0.00939933      -2.71903213       0.00000000
Si      -2.71516833      -0.00086337       2.71530141       0.00000000
Si       2.71699514       2.71351887       0.00092582       0.00000000
