10
Lattice="16.28999089631971 0.0 0.0 0.0 16.28999089631971 0.0 0.0 0.0 34.28971787722196" Properties=species:S:1:pos:R:3:initial_magmoms:R:1 pbc="T T T"
Si      -1.35008262      -1.35568638      -1.38712273       0.00000000
Si       1.35978358       1.35972555      -1.38900867       0.00000000
Si       1.37156811      -1.44065502       1.35794217       0.00000000
Si      -1.52673138       1.18742697       1.58192273       0.00000000
Si      -0.33521562      -2.47635693       2.60420266       0.00000000
Si      -2.71640637       2.70755831       0.00675508       0.00000000
Si       2.72671861       2.70028157      -0.00288034       0.00000000
Si      -2.72995965      -2.71011843      -0.02815187       0.00000000
Si      -2.71120986      -0.00131949      -2.75120276       0.00000000
Si       0.00483813       2.71382670      -2.75120276       0.00000000
