10
Lattice="16.28999089631971 0.0 0.0 0.0 16.28999089631971 0.0 0.0 0.0 34.28971787722196" Properties=species:S:1:pos:R:3:initial_magmoms:R:1 pbc="T T T"
Si       1.20407535       1.82506644       0.90401463       0.00000000
Si      -1.59580098      -0.12276144       1.92471723       0.00000000
Si       1.37640726      -2.00410983       0.64773313       0.00000000
Si      -0.53760258       0.92761776      -2.56569528       0.00000000
Si      -3.07806066       1.55292570       1.22623529       0.00000000
Si       1.59097914       1.17745749       3.14906658       0.00000000
Si      -0.29991519      -3.70379214       0.55374496       0.00000000
Si       0.03057633       3.75960235       0.22775243       0.00000000
Si       3.22343262       2.08150362      -0.40554472       0.00000000
Si       3.15467253      -2.19051630      -0.84472767       0.00000000
