10
Lattice="16.28999089631971 0.0 0.0 0.0 16.28999089631971 0.0 0.0 0.0 34.28971787722196" Properties=species:S:1:pos:R:3:initial_magmoms:R:1 pbc="T T T"
Si      -2.33575794       0.08825922       0.52549022       0.00000000
Si       0.79017903       2.27026955       0.44418925       0.00000000
Si       0.06226038      -1.16934507       2.21559707       0.00000000
Si       1.07693190      -0.47286612      -2.37778753       0.00000000
Si      -3.14844975       1.67901030      -0.94598527       0.00000000
Si       2.96865117       2.21629264      -0.51702066       0.00000000
Si       0.76121541       0.56488833       3.71345649       0.00000000
Si       2.02999464       2.13040589       2.48055356       0.00000000
Si       2.62726327       1.28550906      -2.58342308       0.00000000
Si      -3.43214010      -2.08893186       0.11024150       0.00000000
