10
Lattice="16.28999089631971 0.0 0.0 0.0 16.28999089631971 0.0 0.0 0.0 34.28971787722196" Properties=species:S:1:pos:R:3:initial_magmoms:R:1 pbc="T T T"
Si      -1.52562107      -0.99184923      -1.55109626       0.00000000
Si       0.94776197      -2.10631329       0.71682695       0.00000000
Si       1.15218518       1.52839296      -1.50003884       0.00000000
Si      -1.41989871       0.38582865       2.03389575       0.00000000
Si      -0.07321215      -2.38827690      -2.94840304       0.00000000
Si       1.98836717       3.25332477      -0.06432755       0.00000000
Si      -3.39009302      -1.87056441      -0.33813110       0.00000000
Si      -2.29274975       2.68675857       1.76701873       0.00000000
Si       2.64799814       0.32599548      -2.95680402       0.00000000
Si       2.38797716       2.27906874       2.23623949       0.00000000
