10
Lattice="16.28999089631971 0.0 0.0 0.0 16.28999089631971 0.0 0.0 0.0 34.28971787722196" Properties=species:S:1:pos:R:3:initial_magmoms:R:1 pbc="T T T"
Si       1.72182042       1.24255233      -0.86790753       0.00000000
Si      -0.54185427      -2.20066497      -0.60031043       0.00000000
Si      -1.52055747       1.08918198      -1.41921793       0.00000000
Si      -0.70322301       0.75595374       2.12229469       0.00000000
Si      -2.76593123      -2.07462924       0.22744383       0.00000000
Si       0.70952724       3.40356744      -0.64667015       0.00000000
Si      -3.47058287      -0.03505608      -0.78077731       0.00000000
Si      -0.72394389      -1.29033090       3.24298617       0.00000000
Si       2.27840085       0.21382254      -2.92772633       0.00000000
Si      -0.63330633      -2.26975086      -3.02377188       0.00000000
