10
Lattice="16.28999089631971 0.0 0.0 0.0 16.28999089631971 0.0 0.0 0.0 34.28971787722196" Properties=species:S:1:pos:R:3:initial_magmoms:R:1 pbc="T T T"
Si      -1.36676195      -1.34118828       1.37474757       0.00000000
Si       1.34669430       1.37507704       1.37327311       0.00000000
Si      -1.35942331       1.35799046      -1.37868060       0.00000000
Si       1.47966957      -1.25954280      -1.49779286       0.00000000
Si       0.38931471       2.38996196      -2.61907618       0.00000000
Si       2.28032307       0.62797365      -2.84482544       0.00000000
Si      -0.09449829      -2.54228256      -2.82768057       0.00000000
Si       2.70591561      -2.69190621      -0.00067894       0.00000000
Si      -2.72793059      -2.68825725       0.01211456       0.00000000
Si      -0.96495444      -0.53993205      -3.67504855       0.00000000
