10
Lattice="10.86 0.0 0.0 0.0 10.86 0.0 0.0 0.0 10.86" Properties=species:S:1:pos:R:3:initial_magmoms:R:1 pbc="T T T"
Si       1.24507728       1.44350034      -1.26901272       0.00000000
Si       1.24507728      -1.27149966       1.44598728       0.00000000
Si      -1.46992272      -1.27149966      -1.26901272       0.00000000
Si       2.60257728       0.08600034      -2.62651272       0.00000000
Si       2.60257728      -2.62899966       0.08848728       0.00000000
Si      -0.11242272      -2.62899966      -2.62651272       0.00000000
Si       2.60257728       2.80100034       0.08848728       0.00000000
Si       2.60257728       0.08600034       2.80348728       0.00000000
Si      -0.11242272       2.80100034      -2.62651272       0.00000000
Si      -0.11242272      -2.62899966       2.80348728       0.00000000
