10
Lattice="16.28999089631971 0.0 0.0 0.0 16.28999089631971 0.0 0.0 0.0 34.2284985734139" Properties=species:S:1:pos:R:3:initial_magmoms:R:1 pbc="T T T"
Si       1.31655780      -1.30109145       1.44178731       0.00000000
Si      -0.84965382      -1.84732740      -1.21489024       0.00000000
Si       1.21943682       1.29806702      -1.58327915       0.00000000
Si      -1.42416954       1.41877592       1.41278207       0.00000000
Si       2.58872535       2.63904353      -0.00427172       0.00000000
Si       2.59387299      -2.76704451       0.05401945       0.00000000
Si      -0.05727564      -2.65544172       2.80270976       0.00000000
Si       2.66033619       0.05614348       2.80568764       0.00000000
Si      -2.72973159      -2.74591638      -0.03833252       0.00000000
Si       0.69900390      -3.69679626      -1.11125210       0.00000000
