10
Lattice="16.28999089631971 0.0 0.0 0.0 16.28999089631971 0.0 0.0 0.0 34.2284985734139" Properties=species:S:1:pos:R:3:initial_magmoms:R:1 pbc="T T T"
Si      -1.35664749       1.35606105      -1.35911175       0.00000000
Si      -1.35777150      -1.35694071       1.35716073       0.00000000
Si       1.35728280       1.35808101       1.35719496       0.00000000
Si       1.35617508      -1.35676152      -1.36061781       0.00000000
Si       2.71432125       2.71458189       0.00044497       0.00000000
Si       0.00004887      -2.71456560       2.71459528       0.00000000
Si       2.71484253       0.00004887       2.71438991       0.00000000
Si      -2.71609686      -2.71370223       0.00003423       0.00000000
Si      -2.71526607       0.00014661       2.71514294       0.00000000
Si      -2.71389771       2.71660185      -0.00044497       0.00000000
