10
Lattice="16.28999089631971 0.0 0.0 0.0 16.28999089631971 0.0 0.0 0.0 34.2284985734139" Properties=species:S:1:pos:R:3:initial_magmoms:R:1 pbc="T T T"
Si      -1.35545832      -1.35664749      -1.35688690       0.00000000
Si       1.35995436      -1.35490446       1.36054935       0.00000000
Si       1.35951453       1.35889551      -1.35712650       0.00000000
Si      -1.35527913       1.36301688       1.35996747       0.00000000
Si      -2.71253587       0.00105885      -2.71510871       0.00000000
Si      -2.71335688       2.71450044      -0.00041074       0.00000000
Si       0.00203625      -2.71373481      -2.71486911       0.00000000
Si      -2.71455746      -2.71619460      -0.00044497       0.00000000
Si       0.00276930       2.71629234      -2.71469797       0.00000000
Si       2.71709055       0.00128691      -2.71483488       0.00000000
