10
Lattice="16.28999089631971 0.0 0.0 0.0 16.28999089631971 0.0 0.0 0.0 34.2284985734139" Properties=species:S:1:pos:R:3:initial_magmoms:R:1 pbc="T T T"
Si      -1.46718491       1.69295780      -0.69846713       0.00000000
Si      -0.64803249      -2.03379414      -1.01528629       0.00000000
Si      -0.00425169       0.27659768       2.41879243       0.00000000
Si       1.62425961       0.60547324      -1.71258965       0.00000000
Si       0.29313855      -3.45361425       0.57076053       0.00000000
Si       0.37001106       0.15509709      -3.58608757       0.00000000
Si       1.64116863       1.96351841       2.58606720       0.00000000
Si      -0.16061940       3.64559123      -0.42970481       0.00000000
Si       3.56337234      -0.91208103       0.16381769       0.00000000
Si      -1.57545151       1.40416868      -3.14313632       0.00000000
