10
Lattice="16.28999089631971 0.0 0.0 0.0 16.28999089631971 0.0 0.0 0.0 34.2284985734139" Properties=species:S:1:pos:R:3:initial_magmoms:R:1 pbc="T T T"
Si      -1.09789713      -0.69597396      -1.96242361       0.00000000
Si      -0.00811242      -2.08994184       1.14073381       0.00000000
Si       2.12504679       0.86830587      -0.72160561       0.00000000
Si      -1.04700717       1.92124260       1.00303248       0.00000000
Si       0.90085329      -1.28384748       3.12828115       0.00000000
Si      -1.64450808       1.21412628      -3.16404995       0.00000000
Si      -3.21175758       2.02668777       0.00462085       0.00000000
Si       3.22252038       1.48473576       1.35527816       0.00000000
Si       1.23694857      -3.66362100      -0.07557657       0.00000000
Si       3.47050305      -0.85817349      -1.67497251       0.00000000
