10
Lattice="16.28999089631971 0.0 0.0 0.0 16.28999089631971 0.0 0.0 0.0 34.2284985734139" Properties=species:S:1:pos:R:3:initial_magmoms:R:1 pbc="T T T"
Si       1.46718491      -1.69295780       0.69846713       0.00000000
Si       1.30656551       1.95263343       0.26876232       0.00000000
Si      -2.05317272       0.49695903       1.15401447       0.00000000
Si      -0.10826660      -0.28878912      -2.44466919       0.00000000
Si      -0.59160719       3.28201146      -0.02320694       0.00000000
Si      -2.05229306      -1.75815689      -2.03741829       0.00000000
Si       3.09144452      -1.08748456      -1.01412252       0.00000000
Si       1.46293322      -1.41636011       3.11725956       0.00000000
Si       1.83719597      -1.53786071      -2.88762044       0.00000000
Si      -2.43551531      -1.37593811       2.56066964       0.00000000
