10
Lattice="16.28999089631971 0.0 0.0 0.0 16.28999089631971 0.0 0.0 0.0 34.2284985734139" Properties=species:S:1:pos:R:3:initial_magmoms:R:1 pbc="T T T"
Si       0.90896571       0.80609436       1.98754734       0.00000000
Si       1.24506099      -1.57367916      -1.21631038       0.00000000
Si      -2.09622978      -0.98792334       0.52431243       0.00000000
Si       0.00811242       2.08994184      -1.14073381       0.00000000
Si      -1.08978471       1.39396788      -3.10315741       0.00000000
Si       1.66948065      -3.23781832       0.36857268       0.00000000
Si      -2.71899485       0.30915162       2.50881343       0.00000000
Si      -0.90719010       1.89799677       3.06256239       0.00000000
Si       3.43657098      -0.63467469      -1.40857196       0.00000000
Si       3.05717688       1.62355914       1.49027543       0.00000000
