10
Lattice="16.28999089631971 0.0 0.0 0.0 16.28999089631971 0.0 0.0 0.0 34.2284985734139" Properties=species:S:1:pos:R:3:initial_magmoms:R:1 pbc="T T T"
Si       0.93271653      -1.64915073       1.34589993       0.00000000
Si      -1.79361045       0.89282232       1.21069629       0.00000000
Si      -1.23707889      -1.46346102      -1.54928540       0.00000000
Si       1.90307925       1.58744421      -0.54252201       0.00000000
Si       0.43649055       1.51668045      -3.03894472       0.00000000
Si       2.34013995      -0.29183535       2.59781926       0.00000000
Si      -1.21523400       2.80881954      -1.72337164       0.00000000
Si      -0.49691016       2.36670894       2.54738011       0.00000000
Si       1.95395292      -3.07105596      -0.26749587       0.00000000
Si      -3.10828675       2.04620319      -0.42237991       0.00000000
