10
Lattice="16.28999089631971 0.0 0.0 0.0 16.28999089631971 0.0 0.0 0.0 34.2284985734139" Properties=species:S:1:pos:R:3:initial_magmoms:R:1 pbc="T T T"
Si       1.28326104      -1.42923573       1.35920075       0.00000000
Si      -1.43268921       1.29152007       1.36263387       0.00000000
Si      -1.29670029      -1.47388662      -1.33668382       0.00000000
Si       1.59097914       1.06714161      -1.51942927       0.00000000
Si       0.49691016      -2.36670894      -2.54738011       0.00000000
Si       2.61586449       2.54547540       0.07746598       0.00000000
Si       0.14646339       2.19527298      -2.94525240       0.00000000
Si      -2.63403599       2.68835499      -0.09505944       0.00000000
Si       2.62801683      -0.07842006       2.72016426       0.00000000
Si      -0.08490348       2.63989224       2.72581197       0.00000000
