10
Lattice="16.28999089631971 0.0 0.0 0.0 16.28999089631971 0.0 0.0 0.0 34.2284985734139" Properties=species:S:1:pos:R:3:initial_magmoms:R:1 pbc="T T T"
Si       1.64542032       1.68692072       0.16727477       0.00000000
Si       0.53458893      -1.72041689       1.53128120       0.00000000
Si      -2.18289910       0.28476549       1.01621046       0.00000000
Si       0.00425169      -0.27659768      -2.41879243       0.00000000
Si      -0.57202335      -3.48503114       0.29580285       0.00000000
Si      -1.46293322       1.41636011      -3.11725956       0.00000000
Si       3.57068655       0.68021501      -0.83230064       0.00000000
Si      -2.20987859       2.45116607       2.05952991       0.00000000
Si      -3.89844854       0.04042201      -0.55658993       0.00000000
Si      -0.53835192      -1.34270066       3.67124812       0.00000000
