10
Lattice="16.28999089631971 0.0 0.0 0.0 16.28999089631971 0.0 0.0 0.0 34.2284985734139" Properties=species:S:1:pos:R:3:initial_magmoms:R:1 pbc="T T T"
Si      -1.35242838      -1.36070370      -1.36113123       0.00000000
Si       1.24134687      -1.39522221       1.43256615       0.00000000
Si       1.36171368       1.35648459      -1.36328763       0.00000000
Si      -1.50848658       1.16820477       1.40935922       0.00000000
Si      -0.53999721      -2.48438790       2.64606979       0.00000000
Si      -2.28644811      -0.59860863       2.92188319       0.00000000
Si      -2.71865439       2.68529247      -0.00972090       0.00000000
Si       2.69860140      -2.70951570       0.00119800       0.00000000
Si       2.71006956       2.70169650       0.01037124       0.00000000
Si       0.00317655       2.71011843      -2.72185173       0.00000000
