10
Lattice="16.28999089631971 0.0 0.0 0.0 16.28999089631971 0.0 0.0 0.0 34.2284985734139" Properties=species:S:1:pos:R:3:initial_magmoms:R:1 pbc="T T T"
Si       1.58350203       0.87994900       1.44601796       0.00000000
Si       1.46186460      -1.23704631      -1.41545189       0.00000000
Si      -1.22533380       1.48451652      -1.42921176       0.00000000
Si      -1.84433751      -1.04676282       1.22685276       0.00000000
Si      -3.47687244       0.78870057       1.06262433       0.00000000
Si       0.41417325       1.49229336       3.43592706       0.00000000
Si       0.11350872      -2.58225822      -2.78911076       0.00000000
Si       2.69882946       2.68088507       0.06414424       0.00000000
Si      -2.60089398       0.13001049      -2.78726242       0.00000000
Si      -2.64396474       2.76018479      -0.08231959       0.00000000
