10
Lattice="16.28999089631971 0.0 0.0 0.0 16.28999089631971 0.0 0.0 0.0 34.2284985734139" Properties=species:S:1:pos:R:3:initial_magmoms:R:1 pbc="T T T"
Si      -1.66794939       0.53849853       1.43424335       0.00000000
Si      -0.24233004      -1.35550719      -1.84084391       0.00000000
Si       1.10162754       1.99156653      -0.41543152       0.00000000
Si       1.90148283      -0.36026964       1.28497278       0.00000000
Si       1.78370613      -2.64258009       0.93984664       0.00000000
Si      -3.05520742       1.71390348       0.05462871       0.00000000
Si       3.37804101       1.25208198       0.04305948       0.00000000
Si       1.85627808      -0.90888426      -2.98719120       0.00000000
Si      -0.61346511       1.70214210       3.16107207       0.00000000
Si       1.07355987       0.08395866       3.49161686       0.00000000
