10
Lattice="16.28999089631971 0.0 0.0 0.0 16.28999089631971 0.0 0.0 0.0 34.2284985734139" Properties=species:S:1:pos:R:3:initial_magmoms:R:1 pbc="T T T"
Si      -1.35267273       1.35390655      -1.35757147       0.00000000
Si      -1.35599589      -1.35691302       1.35685267       0.00000000
Si       1.36021500      -1.35456726      -1.35787953       0.00000000
Si       1.35904212       1.35743985       1.35633924       0.00000000
Si      -2.69645112      -0.00332839      -2.72147179       0.00000000
Si       2.70431919       0.00019059      -2.71970560       0.00000000
Si      -2.71329498       0.00017577       2.71349997       0.00000000
Si      -2.71199178       2.71570820      -0.00102686       0.00000000
Si       0.00127062      -2.71448904       2.71394494       0.00000000
Si       0.00143352       2.71546385       2.71380803       0.00000000
