10
Lattice="16.28999089631971 0.0 0.0 0.0 16.28999089631971 0.0 0.0 0.0 34.2284985734139" Properties=species:S:1:pos:R:3:initial_magmoms:R:1 pbc="T T T"
Si      -1.89933255       1.41153664       0.09053443       0.00000000
Si      -0.36207783      -2.18368983       0.86300362       0.00000000
Si       1.57090986       0.75926876       1.62612842       0.00000000
Si       0.57120885      -0.63423323      -2.26589364       0.00000000
Si       2.73852819       2.21807083       0.22368336       0.00000000
Si      -2.01756537      -1.57819053       2.58949005       0.00000000
Si      -3.69704808      -0.04750653      -0.47923348       0.00000000
Si       2.86759386      -1.00761567      -2.20239974       0.00000000
Si      -1.05301818      -2.26934265      -2.81242039       0.00000000
Si      -1.72771740       2.87913533      -1.76629420       0.00000000
