10
Lattice="16.28999089631971 0.0 0.0 0.0 16.28999089631971 0.0 0.0 0.0 34.2284985734139" Properties=species:S:1:pos:R:3:initial_magmoms:R:1 pbc="T T T"
Si       1.31628087      -2.01991832       0.13273819       0.00000000
Si      -0.74086920       1.11044043       2.09967996       0.00000000
Si      -1.60446726      -1.61773451      -1.21802180       0.00000000
Si       1.43451369       0.96980886      -2.36621743       0.00000000
Si      -0.36320184      -0.48923431      -2.93598533       0.00000000
Si      -2.19717891       2.65507452       0.95189508       0.00000000
Si      -0.32503437      -3.53873276      -0.78917270       0.00000000
Si      -0.84999591       3.53478339      -0.76884096       0.00000000
Si       2.35123344      -1.94112359       2.39476401       0.00000000
Si       3.33384624      -0.44172779      -2.45675186       0.00000000
