10
Lattice="16.28999089631971 0.0 0.0 0.0 16.28999089631971 0.0 0.0 0.0 34.2284985734139" Properties=species:S:1:pos:R:3:initial_magmoms:R:1 pbc="T T T"
Si       1.23300639       0.97544520       1.73305831       0.00000000
Si      -0.20049732       1.32370911      -1.93021457       0.00000000
Si       1.06471440      -2.10359286      -0.26277233       0.00000000
Si      -2.10028599       0.37419759       1.18814031       0.00000000
Si       0.49216977      -0.54556839       3.34238053       0.00000000
Si       0.59640948      -0.16518060      -3.60785691       0.00000000
Si      -2.84210001       1.71624924      -1.61185513       0.00000000
Si      -1.63220913      -2.97196389      -1.56444863       0.00000000
Si       3.37888809      -1.63189962       0.29172966       0.00000000
Si       0.31982157       3.13665579       2.05987220       0.00000000
