10
Lattice="16.28999089631971 0.0 0.0 0.0 16.28999089631971 0.0 0.0 0.0 34.2284985734139" Properties=species:S:1:pos:R:3:initial_magmoms:R:1 pbc="T T T"
Si       0.28790946       0.66155319       2.16194164       0.00000000
Si       0.74083662       1.52101359      -1.60932222       0.00000000
Si       0.57236544      -2.28845178       0.03546074       0.00000000
Si      -2.10041631       0.02353905       1.54432226       0.00000000
Si      -3.14719542      -0.69201549      -0.52794066       0.00000000
Si      -0.49216977       0.54556839      -3.34238053       0.00000000
Si      -2.59245576       0.91976598      -2.15424022       0.00000000
Si       2.99595906       0.80982477      -1.66843487       0.00000000
Si       1.93360671      -0.78996726       2.93947664       0.00000000
Si      -0.36338103      -3.05536869       2.04710496       0.00000000
