10
Lattice="16.28999089631971 0.0 0.0 0.0 16.28999089631971 0.0 0.0 0.0 34.2284985734139" Properties=species:S:1:pos:R:3:initial_magmoms:R:1 pbc="T T T"
Si       1.06746741       1.40095629       1.51926699       0.00000000
Si      -0.64373193      -2.10707892       0.74963877       0.00000000
Si      -1.64569725       1.45152045      -0.77753501       0.00000000
Si       1.75485654      -0.78872922      -1.31591536       0.00000000
Si      -2.29698774      -2.26540143      -0.89237169       0.00000000
Si      -1.21961601      -1.35011520       2.87475052       0.00000000
Si       0.22372686       0.44453781       3.47683014       0.00000000
Si      -1.36124127      -1.49848452      -2.90401590       0.00000000
Si       3.21312105       0.54905445       1.45573886       0.00000000
Si      -1.93360671       0.78996726      -2.93947664       0.00000000
