10
Lattice="16.28999089631971 0.0 0.0 0.0 16.28999089631971 0.0 0.0 0.0 34.2284985734139" Properties=species:S:1:pos:R:3:initial_magmoms:R:1 pbc="T T T"
Si       1.35565380       1.35852084      -1.35736610       0.00000000
Si       1.35754344      -1.35695700       1.35729764       0.00000000
Si      -1.35845568      -1.35790182      -1.35674998       0.00000000
Si      -1.35799956       1.35806472       1.35743456       0.00000000
Si       2.71122615      -0.00231318       2.71397917       0.00000000
Si      -0.00156384       2.71349046       2.71435568       0.00000000
Si       0.00470781       2.71458189      -2.71339728       0.00000000
Si       0.00148239      -2.71549413      -2.71363688       0.00000000
Si      -0.00105885      -2.71489140       2.71432145       0.00000000
Si       2.71487511      -2.71458189       0.00037651       0.00000000
