10
Lattice="16.28999089631971 0.0 0.0 0.0 16.28999089631971 0.0 0.0 0.0 34.2284985734139" Properties=species:S:1:pos:R:3:initial_magmoms:R:1 pbc="T T T"
Si      -1.37826432      -1.14606666      -1.48640761       0.00000000
Si       1.31445639       1.41299460      -1.50567827       0.00000000
Si       0.96415623      -2.06884629       0.96230055       0.00000000
Si      -2.61454500       0.14530680       1.25735037       0.00000000
Si       0.07899021      -2.46036015      -2.91777576       0.00000000
Si       1.32310638      -1.48623444       3.26064282       0.00000000
Si      -3.15960840      -2.23523235      -0.27290397       0.00000000
Si      -2.61961119       0.24915555      -2.91897376       0.00000000
Si       3.17224944       2.31560721      -0.28782761       0.00000000
Si       2.50152498       2.14612605       2.17467464       0.00000000
