10
Lattice="16.28999089631971 0.0 0.0 0.0 16.28999089631971 0.0 0.0 0.0 34.2284985734139" Properties=species:S:1:pos:R:3:initial_magmoms:R:1 pbc="T T T"
Si      -0.52909920      -2.25634419      -0.38548157       0.00000000
Si       2.19739068      -0.20877264       0.81888306       0.00000000
Si      -0.00540828       1.59710418      -1.76845060       0.00000000
Si      -1.13560848       0.71084673       1.97567004       0.00000000
Si      -0.73832796       3.43930770      -0.48231404       0.00000000
Si       2.18406546      -2.30690835       1.91132043       0.00000000
Si      -2.16591840       2.77311186       1.27196595       0.00000000
Si      -3.16540764      -0.55144908       2.02714973       0.00000000
Si       1.11659805      -3.70786464       0.39205344       0.00000000
Si       2.17349325       2.43030510      -2.18326600       0.00000000
