10
Lattice="16.28999089631971 0.0 0.0 0.0 16.28999089631971 0.0 0.0 0.0 34.2284985734139" Properties=species:S:1:pos:R:3:initial_magmoms:R:1 pbc="T T T"
Si      -1.34863281      -1.32841692       1.37088979       0.00000000
Si      -1.41677388       1.27521378      -1.38125760       0.00000000
Si       1.36257705       1.38992796       1.37010253       0.00000000
Si       1.35879777      -1.38026799      -1.46222858       0.00000000
Si       1.99761012       0.53357895      -2.74726096       0.00000000
Si       0.30089259       2.28876129      -2.72347215       0.00000000
Si      -2.67213015      -2.71031391       0.00297446       0.00000000
Si       2.73184929      -2.67193467       0.00244734       0.00000000
Si       0.00231318      -2.68447797       2.72692097       0.00000000
Si      -2.69408907       2.74116683       0.00651026       0.00000000
