10
Lattice="16.28999089631971 0.0 0.0 0.0 16.28999089631971 0.0 0.0 0.0 34.2284985734139" Properties=species:S:1:pos:R:3:initial_magmoms:R:1 pbc="T T T"
Si       1.35654975       1.35580041       1.35674998       0.00000000
Si      -1.35726651       1.35757602      -1.35709227       0.00000000
Si       1.35775521      -1.35775521      -1.35774261       0.00000000
Si      -1.35853713      -1.35951453       1.35671576       0.00000000
Si       0.00198738      -2.71410948       2.71346574       0.00000000
Si      -0.00127062       2.71448904      -2.71394494       0.00000000
Si      -2.71456560       2.71466481      -0.00044497       0.00000000
Si      -0.00131949      -2.71448415      -2.71500602       0.00000000
Si      -2.71516833      -0.00118917      -2.71456105       0.00000000
Si      -2.71497285      -2.71494027      -0.00020537       0.00000000
