10
Lattice="16.28999089631971 0.0 0.0 0.0 16.28999089631971 0.0 0.0 0.0 34.2284985734139" Properties=species:S:1:pos:R:3:initial_magmoms:R:1 pbc="T T T"
Si      -2.28108870       0.41291892      -0.39154001       0.00000000
Si       1.27340559       1.95061088       0.43617400       0.00000000
Si      -0.27319959      -1.51988958       1.81921149       0.00000000
Si       1.10252349      -0.63270360      -2.03283167       0.00000000
Si       1.58011371      -2.92392468       1.58440386       0.00000000
Si      -3.26832786      -1.72061496      -0.31459431       0.00000000
Si      -2.03520744      -2.97207792       1.15853264       0.00000000
Si       3.42018324      -0.20961972      -1.73364019       0.00000000
Si      -0.72519822      -0.32785254       3.86152445       0.00000000
Si       0.65832777       3.85335782      -0.80522588       0.00000000
