10
Lattice="16.28999089631971 0.0 0.0 0.0 16.28999089631971 0.0 0.0 0.0 34.2284985734139" Properties=species:S:1:pos:R:3:initial_magmoms:R:1 pbc="T T T"
Si       0.36207783       2.18368983      -0.86300362       0.00000000
Si      -0.45727659      -1.50105834      -1.80528048       0.00000000
Si      -1.65548754       0.60549930       1.72648643       0.00000000
Si       0.44110062      -1.78632882       1.73391402       0.00000000
Si       2.70879894      -1.28528100       1.30218973       0.00000000
Si      -3.29680278      -0.91331514       0.80457554       0.00000000
Si      -2.60649774      -2.18574333      -1.06077599       0.00000000
Si       1.93298769       2.94295859       0.76312480       0.00000000
Si       0.93328668       1.54945660      -3.12889726       0.00000000
Si      -0.69094035      -0.08565282      -3.67542400       0.00000000
