10
Lattice="16.28999089631971 0.0 0.0 0.0 16.28999089631971 0.0 0.0 0.0 34.2284985734139" Properties=species:S:1:pos:R:3:initial_magmoms:R:1 pbc="T T T"
Si      -1.71766647      -1.01354751       1.34221454       0.00000000
Si       1.00541880       1.76461492       1.29502368       0.00000000
Si       1.69671753      -1.75518234      -0.02378882       0.00000000
Si      -1.03495257      -0.07879473      -2.26202582       0.00000000
Si       1.06163559      -2.47062285      -2.25459823       0.00000000
Si      -0.30089259      -2.28876129       2.72347215       0.00000000
Si       2.40578865       0.45592452       2.73174860       0.00000000
Si      -2.35123344       1.94112359      -2.39476401       0.00000000
Si       2.76144822       2.85188120       0.20933036       0.00000000
Si       3.63990276      -0.93472020       1.30347813       0.00000000
