10
Lattice="16.28999089631971 0.0 0.0 0.0 16.28999089631971 0.0 0.0 0.0 34.2284985734139" Properties=species:S:1:pos:R:3:initial_magmoms:R:1 pbc="T T T"
Si      -1.34280099      -1.35894438      -1.39464095       0.00000000
Si       1.37784078       1.35482301      -1.39731078       0.00000000
Si       1.33863075      -1.41685533       1.53408793       0.00000000
Si      -1.56478482       1.41086061       1.42975941       0.00000000
Si      -2.68693776      -2.72317486      -0.00489468       0.00000000
Si      -2.70635544       2.71894761      -0.07807525       0.00000000
Si       2.73244617       2.69461035      -0.00301211       0.00000000
Si       2.73407029      -2.70145378      -0.02286465       0.00000000
Si      -2.70122409      -0.00060273      -2.75789436       0.00000000
Si       0.01400940       2.71448415      -2.75758630       0.00000000
