10
Lattice="16.28999089631971 0.0 0.0 0.0 16.28999089631971 0.0 0.0 0.0 34.2284985734139" Properties=species:S:1:pos:R:3:initial_magmoms:R:1 pbc="T T T"
Si       1.71554944       0.24434348       1.57280039       0.00000000
Si       0.38234259       1.87289714      -1.40665516       0.00000000
Si      -2.17017009       0.02089355       1.04044425       0.00000000
Si      -0.02339244      -2.13933705      -1.12936994       0.00000000
Si      -2.78524791       1.92364049      -0.20095563       0.00000000
Si      -1.75689279       2.01390338      -2.34461923       0.00000000
Si       1.01488329      -1.46437719       3.14074033       0.00000000
Si      -2.34105219      -2.56242093      -1.42856141       0.00000000
Si       2.43551531       1.37593811      -2.56066964       0.00000000
Si       1.01496474      -3.77493450       0.27909933       0.00000000
