10
Lattice="16.28999089631971 0.0 0.0 0.0 16.28999089631971 0.0 0.0 0.0 34.2284985734139" Properties=species:S:1:pos:R:3:initial_magmoms:R:1 pbc="T T T"
Si       1.35942493      -1.35296595       1.35524393       0.00000000
Si      -1.35509999      -1.35550719      -1.35705804       0.00000000
Si      -1.34969070       1.35791811       1.36123392       0.00000000
Si       1.35909913       1.35954711      -1.35644193       0.00000000
Si      -2.71282161      -2.71323308       0.00020537       0.00000000
Si       0.00155895      -2.71229640      -2.71411608       0.00000000
Si      -2.71314741       0.00239463      -2.71462951       0.00000000
Si       2.71480180      -2.71315977      -0.00020537       0.00000000
Si       2.71455746       2.71619460       0.00044497       0.00000000
Si       2.71659371       0.00245979      -2.71442414       0.00000000
