10
Lattice="16.28999089631971 0.0 0.0 0.0 16.28999089631971 0.0 0.0 0.0 34.2284985734139" Properties=species:S:1:pos:R:3:initial_magmoms:R:1 pbc="T T T"
Si       0.03792801       1.26016182      -1.98693122       0.00000000
Si      -1.03408593       1.02366360       1.90765798       0.00000000
Si      -1.03143703      -2.26771461       0.25106618       0.00000000
Si       0.68593443      -0.14457375       2.86742561       0.00000000
Si      -0.24096331      -2.22381306       2.66674381       0.00000000
Si      -1.40911336      -0.04623102      -3.24068760       0.00000000
Si      -3.38274460      -0.57611214      -1.72699986       0.00000000
Si       0.05873359      -3.85888923      -1.38307171       0.00000000
Si      -0.38165678       3.18611223       2.59291290       0.00000000
Si      -3.46601908      -2.47362021      -0.14985245       0.00000000
