10
Lattice="16.28999089631971 0.0 0.0 0.0 16.28999089631971 0.0 0.0 0.0 34.2284985734139" Properties=species:S:1:pos:R:3:initial_magmoms:R:1 pbc="T T T"
Si       1.31502654      -1.20839220      -1.66720264       0.00000000
Si       1.95367599       0.87664635       1.20655525       0.00000000
Si      -1.62721136      -1.21896441       1.54042021       0.00000000
Si      -1.37565466       1.49459121      -1.64697359       0.00000000
Si       2.65186539      -2.64380184      -0.33578176       0.00000000
Si       2.56748319       2.73344571      -0.30648215       0.00000000
Si      -2.76947009      -2.61687447      -0.10987354       0.00000000
Si       3.66573870      -0.94905540       1.00039689       0.00000000
Si      -0.02114442      -2.55608019      -3.04726225       0.00000000
Si      -3.09505832       2.59369380      -0.31719567       0.00000000
