10
Lattice="16.28999089631971 0.0 0.0 0.0 16.28999089631971 0.0 0.0 0.0 34.2284985734139" Properties=species:S:1:pos:R:3:initial_magmoms:R:1 pbc="T T T"
Si      -2.43458206      -0.20590560      -0.40091863       0.00000000
Si       1.03143703       2.26771461      -0.25106618       0.00000000
Si       1.09017062      -1.59117462      -1.63413789       0.00000000
Si       0.79047372       0.04390155       2.41567764       0.00000000
Si      -2.35130758       1.69160247      -1.97806604       0.00000000
Si      -0.00264890       3.29137821       1.65659180       0.00000000
Si       1.27381431      -3.52689903      -0.00578462       0.00000000
Si       1.71737146       2.12314086       2.61635944       0.00000000
Si       2.68864642      -1.28547648       2.70764689       0.00000000
Si      -3.72417991      -0.66938868       1.64659707       0.00000000
