10
Lattice="16.28999089631971 0.0 0.0 0.0 16.28999089631971 0.0 0.0 0.0 34.2284985734139" Properties=species:S:1:pos:R:3:initial_magmoms:R:1 pbc="T T T"
Si      -1.89817270       1.32937803      -0.29196926       0.00000000
Si      -1.30656551      -1.95263343      -0.26876232       0.00000000
Si       1.49126805       0.38314080       1.84981178       0.00000000
Si       1.46828286       0.50955120      -1.86196291       0.00000000
Si      -0.97127496       3.40861734      -0.09128746       0.00000000
Si       3.11577201      -1.11638628      -1.42120228       0.00000000
Si      -3.14482427       0.79731405       1.61496992       0.00000000
Si       0.16061940      -3.64559123       0.42970481       0.00000000
Si       1.78487901      -3.04011799      -1.28288484       0.00000000
Si      -3.35973824      -1.45567440       0.88525215       0.00000000
