10
Lattice="16.28999089631971 0.0 0.0 0.0 16.28999089631971 0.0 0.0 0.0 34.2284985734139" Properties=species:S:1:pos:R:3:initial_magmoms:R:1 pbc="T T T"
Si       1.17299403      -1.39333257       1.42969096       0.00000000
Si       1.41017643       1.83870117       0.29600822       0.00000000
Si       1.26459270      -0.82407852      -1.84895607       0.00000000
Si      -2.21576580       0.76439196      -0.56867259       0.00000000
Si       0.04833243       3.50080245      -0.76476777       0.00000000
Si      -1.74351870       2.56080429      -2.01523821       0.00000000
Si       0.79661358      -3.16061838      -1.85453532       0.00000000
Si       3.55282361       1.27790163      -0.60040243       0.00000000
Si       2.98207902      -0.24957909       2.47451646       0.00000000
Si      -0.18818208      -2.53630413       2.93482156       0.00000000
