10
Lattice="16.28999089631971 0.0 0.0 0.0 16.28999089631971 0.0 0.0 0.0 34.2284985734139" Properties=species:S:1:pos:R:3:initial_magmoms:R:1 pbc="T T T"
Si       0.92689774       2.07923931       0.20068180       0.00000000
Si       1.89817270      -1.32937803       0.29196926       0.00000000
Si      -1.24665156      -0.53206398       1.90693918       0.00000000
Si      -0.79047372      -0.04390155      -2.41567764       0.00000000
Si       0.59160719      -3.28201146       0.02320694       0.00000000
Si      -1.46156553      -2.78505243       1.17722141       0.00000000
Si      -0.79312262       3.24747666      -0.75908584       0.00000000
Si       0.24096331       2.22381306      -2.66674381       0.00000000
Si       1.67319151       2.46887982       2.33681513       0.00000000
Si       3.36645556      -0.81982683      -1.56999365       0.00000000
