10
Lattice="16.28999089631971 0.0 0.0 0.0 16.28999089631971 0.0 0.0 0.0 34.2284985734139" Properties=species:S:1:pos:R:3:initial_magmoms:R:1 pbc="T T T"
Si      -0.86477094      -1.82268810      -1.21822717       0.00000000
Si      -0.50168313      -0.13721067       2.33452182       0.00000000
Si      -1.79142759       1.66777020       0.00780410       0.00000000
Si       1.94003541       0.94947894      -1.19163162       0.00000000
Si      -2.16244863      -0.41725206      -2.62440314       0.00000000
Si       0.57174642       2.30847219      -2.61677018       0.00000000
Si       1.73599272       0.12864213       3.09870771       0.00000000
Si      -0.72443259       3.53571192      -1.05615514       0.00000000
Si      -2.46215205       1.49828904       2.47030635       0.00000000
Si      -3.64922064       0.76515759      -1.21004656       0.00000000
