10
Lattice="16.28999089631971 0.0 0.0 0.0 16.28999089631971 0.0 0.0 0.0 34.2284985734139" Properties=species:S:1:pos:R:3:initial_magmoms:R:1 pbc="T T T"
Si       2.23767585       0.26585280       0.76418589       0.00000000
Si       0.50168313       0.13721067      -2.33452182       0.00000000
Si      -0.75354282      -1.85080464       1.32806649       0.00000000
Si      -1.96046892       1.63549971       0.13578453       0.00000000
Si      -1.26200259       0.01801674       2.83134876       0.00000000
Si      -1.28974446       1.80498087      -2.32671772       0.00000000
Si      -3.32654832       0.25545978       1.66822950       0.00000000
Si       2.33533440       2.43454050       1.61288198       0.00000000
Si      -3.13888752      -1.99686078       1.22175271       0.00000000
Si      -0.36308781      -1.68547743      -3.55274899       0.00000000
