10
Lattice="16.28999089631971 0.0 0.0 0.0 16.28999089631971 0.0 0.0 0.0 34.2284985734139" Properties=species:S:1:pos:R:3:initial_magmoms:R:1 pbc="T T T"
Si      -1.32579816      -0.18583632      -1.91953527       0.00000000
Si       2.14065587       0.90500724      -0.28803298       0.00000000
Si      -1.14426240       1.67009967       1.20186594       0.00000000
Si      -0.23448478      -1.90097784       1.37352196       0.00000000
Si       1.59404492       2.81510748      -1.48965932       0.00000000
Si      -3.31501893       0.93872754      -1.27710022       0.00000000
Si      -2.33379078       0.47835585       2.85031135       0.00000000
Si       3.31029416      -0.60000957      -1.68469341       0.00000000
Si      -2.41467063      -1.82379582       2.25411903       0.00000000
Si       1.13421080      -1.47688398       3.33943687       0.00000000
