10
Lattice="16.28999089631971 0.0 0.0 0.0 16.28999089631971 0.0 0.0 0.0 34.2284985734139" Properties=species:S:1:pos:R:3:initial_magmoms:R:1 pbc="T T T"
Si      -0.09765855      -2.16868770      -0.84869610       0.00000000
Si       2.30927759       0.05406651       0.40516296       0.00000000
Si      -0.96878259       0.26554329       2.15328182       0.00000000
Si      -0.56216790       2.02266155      -1.31543616       0.00000000
Si       3.15508697      -0.08436591      -1.88397184       0.00000000
Si      -2.33533440      -2.43454050      -1.61288198       0.00000000
Si      -3.28644234      -0.15754059       1.85409035       0.00000000
Si       0.06957459      -1.37005416       3.56175110       0.00000000
Si       2.95731008       2.08786065       1.42044926       0.00000000
Si       0.75782450      -3.81723570       0.62494428       0.00000000
