10
Lattice="16.28999089631971 0.0 0.0 0.0 16.28999089631971 0.0 0.0 0.0 34.2284985734139" Properties=species:S:1:pos:R:3:initial_magmoms:R:1 pbc="T T T"
Si       1.18936548       1.82110797      -0.77003896       0.00000000
Si      -0.41625837       0.85657707       2.15071468       0.00000000
Si      -1.79185113      -0.93999816      -1.25047044       0.00000000
Si       1.36184400      -1.66210128       1.06077599       0.00000000
Si       1.50635407      -0.33381468       2.96833128       0.00000000
Si      -2.26409823      -2.73641049       0.19609518       0.00000000
Si      -0.04833243      -3.50080245       0.76476777       0.00000000
Si       2.83822855       0.95982309      -2.13353197       0.00000000
Si       2.11240316       2.77923690       1.21025193       0.00000000
Si      -2.68395669       0.35552925       2.58243898       0.00000000
