10
Lattice="16.28999089631971 0.0 0.0 0.0 16.28999089631971 0.0 0.0 0.0 34.2284985734139" Properties=species:S:1:pos:R:3:initial_magmoms:R:1 pbc="T T T"
Si       1.33828866       1.34392500       1.36931185       0.00000000
Si      -1.35807775       1.35148356      -1.36037821       0.00000000
Si       1.35527913      -1.36301688      -1.35996747       0.00000000
Si      -1.35436363      -1.38150603       1.39512015       0.00000000
Si       2.58877422      -0.14265153       2.73561159       0.00000000
Si      -2.71353023       2.70980892       0.00047920       0.00000000
Si       2.71648782       2.71046052       0.00167720       0.00000000
Si       0.00026064       2.71062342      -2.71723088       0.00000000
Si      -2.70896903      -2.72129337       0.00082148       0.00000000
Si       2.71479366      -0.00412137      -2.71709396       0.00000000
