10
Lattice="16.28999089631971 0.0 0.0 0.0 16.28999089631971 0.0 0.0 0.0 34.2284985734139" Properties=species:S:1:pos:R:3:initial_magmoms:R:1 pbc="T T T"
Si      -1.44704137      -1.30639284      -1.25375637       0.00000000
Si      -0.03792801      -1.26016182       1.98693122       0.00000000
Si       1.54346773       1.53013599      -1.06741632       0.00000000
Si       0.27236228      -2.40549543      -2.58353429       0.00000000
Si      -2.44842025       0.32874849      -2.61314196       0.00000000
Si      -3.42067261      -1.83627396       0.25993136       0.00000000
Si       2.96501458       0.31993560      -2.60934259       0.00000000
Si       0.27839773       3.02984226      -2.59366593       0.00000000
Si      -1.07201393      -0.23649822       3.89458920       0.00000000
Si       3.40919401       2.44856619       0.30603718       0.00000000
