10
Lattice="16.28999089631971 0.0 0.0 0.0 16.28999089631971 0.0 0.0 0.0 34.2284985734139" Properties=species:S:1:pos:R:3:initial_magmoms:R:1 pbc="T T T"
Si      -0.14271669       1.98136899      -1.25512552       0.00000000
Si       1.82918781      -0.91654056       1.15617087       0.00000000
Si      -1.03192100      -1.77948702      -1.22165003       0.00000000
Si      -1.77404290       0.51575769       1.56650234       0.00000000
Si       1.35511623      -1.78722477      -2.27770248       0.00000000
Si      -1.51929174      -2.84377788       0.81409107       0.00000000
Si      -2.45417714       1.73188764      -1.82841896       0.00000000
Si       0.64545867      -2.94922305       1.81250270       0.00000000
Si       2.07151785       0.43896663       2.99701478       0.00000000
Si      -2.57628698      -0.56503494      -2.56508512       0.00000000
