10
Lattice="16.28999089631971 0.0 0.0 0.0 16.28999089631971 0.0 0.0 0.0 34.2284985734139" Properties=species:S:1:pos:R:3:initial_magmoms:R:1 pbc="T T T"
Si       1.49412532       1.08211212      -1.42383788       0.00000000
Si      -1.16659858      -1.55160621      -1.33203699       0.00000000
Si      -1.78786075       1.75485069       0.11576085       0.00000000
Si       1.88210425      -0.28812123       1.92302658       0.00000000
Si       2.05433842       2.03920242       1.64136011       0.00000000
Si      -1.83515062       1.81890623       2.49156226       0.00000000
Si       0.17841297       2.54148991      -2.75128825       0.00000000
Si      -2.53488757      -0.19261296      -2.75717556       0.00000000
Si       3.37140121       1.82767677      -0.27529997       0.00000000
Si       0.10887584       3.28827401       2.08431136       0.00000000
