10
Lattice="16.28999089631971 0.0 0.0 0.0 16.28999089631971 0.0 0.0 0.0 34.2284985734139" Properties=species:S:1:pos:R:3:initial_magmoms:R:1 pbc="T T T"
Si       0.17223417       2.32732365      -0.28166647       0.00000000
Si      -0.84580938       0.13843242       2.28913481       0.00000000
Si       2.61073314      -0.57397815       0.27957853       0.00000000
Si      -1.88210425       0.28812123      -1.92302658       0.00000000
Si       1.48929696       2.11579800      -2.19832655       0.00000000
Si       1.42648272       2.77769979       1.59183144       0.00000000
Si      -0.38797893       1.37023335      -3.34686446       0.00000000
Si      -3.15508697       0.08436591       1.88397184       0.00000000
Si       3.12183189       0.28033461      -2.03409812       0.00000000
Si       1.49902209      -3.30641388       1.07385129       0.00000000
