10
Lattice="16.28999089631971 0.0 0.0 0.0 16.28999089631971 0.0 0.0 0.0 34.2284985734139" Properties=species:S:1:pos:R:3:initial_magmoms:R:1 pbc="T T T"
Si      -0.87464431      -1.97082936       0.93132374       0.00000000
Si       1.07294085      -0.37771623      -2.13996693       0.00000000
Si      -0.63783495       2.04244739       1.20258474       0.00000000
Si       2.19076065       0.26077032       1.21398284       0.00000000
Si      -2.34521333      -0.08125452      -1.08709772       0.00000000
Si      -1.64454718       1.62746615      -2.65503766       0.00000000
Si      -2.52350738      -1.10954448       2.29481674       0.00000000
Si       3.28219065      -1.69316631       0.46126350       0.00000000
Si      -3.60825848       0.38727978       0.84797730       0.00000000
Si       3.36623076      -0.91219113      -1.71320577       0.00000000
