10
Lattice="16.28999089631971 0.0 0.0 0.0 16.28999089631971 0.0 0.0 0.0 34.2284985734139" Properties=species:S:1:pos:R:3:initial_magmoms:R:1 pbc="T T T"
Si       1.38725803      -1.17540495       1.37961463       0.00000000
Si      -1.64886307       0.86128488       1.36349300       0.00000000
Si      -0.79035333      -1.63711242      -1.48514115       0.00000000
Si       0.87464431       1.97082936      -0.93132374       0.00000000
Si      -1.47056902       1.88957484      -2.01842146       0.00000000
Si       3.05520742      -1.71390348      -0.05462871       0.00000000
Si      -2.30142418      -0.27789111      -2.72955314       0.00000000
Si      -2.73361417       2.35810914      -0.08334644       0.00000000
Si      -2.83822855      -0.95982309       2.13353197       0.00000000
Si       3.06540496       2.23159968       0.28265910       0.00000000
