10
Lattice="16.28999089631971 0.0 0.0 0.0 16.28999089631971 0.0 0.0 0.0 34.2284985734139" Properties=species:S:1:pos:R:3:initial_magmoms:R:1 pbc="T T T"
Si      -1.87799006       0.44996238       1.36780580       0.00000000
Si       1.06394225       2.01552979      -0.68597372       0.00000000
Si      -0.92303768      -0.95812893      -1.98029089       0.00000000
Si       1.27590773      -1.61929116       1.32094696       0.00000000
Si      -2.52866153      -1.92265983       0.94046275       0.00000000
Si      -0.60604909      -3.11305158       1.75807935       0.00000000
Si       3.04184147       1.88005563       0.68857509       0.00000000
Si       3.16756769      -1.83117519      -0.23734054       0.00000000
Si      -2.11240316      -2.77923690      -1.21025193       0.00000000
Si       0.72582539      -1.81941381      -3.34378389       0.00000000
