10
Lattice="10.86 0.0 0.0 0.0 10.86 0.0 0.0 0.0 10.86" Properties=species:S:1:pos:R:3:initial_magmoms:R:1 pbc="T T T"
Si      -1.08172116      -1.58754738      -1.37437644       0.00000000
Si      -1.24805292       1.35529542       1.56955236       0.00000000
Si       1.53968736      -1.24982310       1.58322510       0.00000000
Si      -2.36186538      -0.02675904      -2.55876804       0.00000000
Si      -2.36186538       2.68824096       0.15623196       0.00000000
Si      -2.36186538      -2.74175904       0.15623196       0.00000000
Si      -2.36186538      -0.02675904       2.87123196       0.00000000
Si       0.35313462      -2.74175904      -2.55876804       0.00000000
Si       0.24499074       2.80292256      -2.60175192       0.00000000
Si       0.35313462       2.68824096       2.87123196       0.00000000
