10
Lattice="10.86 0.0 0.0 0.0 10.86 0.0 0.0 0.0 10.86" Properties=species:S:1:pos:R:3:initial_magmoms:R:1 pbc="T T T"
Si      -1.18655274      -1.49193594       1.28800686       0.00000000
Si       1.52844726       1.22306406       1.28800686       0.00000000
Si      -1.53968736       1.24982310      -1.58322510       0.00000000
Si       1.52844726      -1.49193594      -1.42699314       0.00000000
Si      -2.54405274      -0.13443594       2.64550686       0.00000000
Si       0.17094726       2.58056406       2.64550686       0.00000000
Si      -2.78774028       2.60511852      -0.01367274       0.00000000
Si      -2.54405274      -2.84943594      -0.06949314       0.00000000
Si       3.01030512       2.42244246       0.07079634       0.00000000
Si       0.17094726      -2.84943594       2.64550686       0.00000000
