10
Lattice="10.86 0.0 0.0 0.0 10.86 0.0 0.0 0.0 10.86" Properties=species:S:1:pos:R:3:initial_magmoms:R:1 pbc="T T T"
Si       1.35750000       1.35750000       1.35750000       0.00000000
Si       1.35750000      -1.35750000      -1.35750000       0.00000000
Si      -1.35750000       1.35750000      -1.35750000       0.00000000
Si      -1.35750000      -1.35750000       1.35750000       0.00000000
Si      -2.66636892      -2.50658574       0.13161234       0.00000000
Si      -2.51782584       0.15247440      -2.69147724       0.00000000
Si       2.47131246       0.02455446       2.77082040       0.00000000
Si       2.74237806       0.14337372      -2.53781910       0.00000000
Si      -2.75879838       2.61517488       0.14537196       0.00000000
Si       2.71770414       2.67834750       0.16941600       0.00000000
