10
Lattice="10.86 0.0 0.0 0.0 10.86 0.0 0.0 0.0 10.86" Properties=species:S:1:pos:R:3:initial_magmoms:R:1 pbc="T T T"
Si      -1.48185786      -1.19937840       1.21721052       0.00000000
Si       1.23314214      -1.19937840      -1.49778948       0.00000000
Si       1.23314214       1.51562160       1.21721052       0.00000000
Si      -0.07572678      -2.34846414      -2.72367714       0.00000000
Si      -0.12435786      -2.55687840       2.57471052       0.00000000
Si       2.59064214      -2.55687840      -0.14028948       0.00000000
Si       2.59064214       0.15812160       2.57471052       0.00000000
Si      -2.83935786       0.15812160       2.57471052       0.00000000
Si       2.59064214       0.15812160      -2.85528948       0.00000000
Si      -0.12435786       2.87312160       2.57471052       0.00000000
