10
Lattice="10.86 0.0 0.0 0.0 10.86 0.0 0.0 0.0 10.86" Properties=species:S:1:pos:R:3:initial_magmoms:R:1 pbc="T T T"
Si       1.17192432      -1.55725884      -1.15195278       0.00000000
Si       1.17192432       1.15774116       1.56304722       0.00000000
Si      -1.54307568      -1.55725884       1.56304722       0.00000000
Si      -0.35918364       2.21945820      -2.52295176       0.00000000
Si       2.52942432      -0.19975884      -2.50945278       0.00000000
Si       2.52942432       2.51524116       0.20554722       0.00000000
Si      -0.18557568      -2.91475884      -2.50945278       0.00000000
Si       2.52942432      -2.91475884       0.20554722       0.00000000
Si       0.01391166       2.30769570       3.10433100       0.00000000
Si       2.52942432      -0.19975884       2.92054722       0.00000000
