10
Lattice="10.86 0.0 0.0 0.0 10.86 0.0 0.0 0.0 10.86" Properties=species:S:1:pos:R:3:initial_magmoms:R:1 pbc="T T T"
Si      -1.34314308      -1.29279612       1.23826806       0.00000000
Si       1.37185692       1.42220388       1.23826806       0.00000000
Si      -1.49924472       1.26904530      -1.27025076       0.00000000
Si       1.37185692      -1.29279612      -1.47673194       0.00000000
Si       0.01435692      -2.65029612       2.59576806       0.00000000
Si      -2.70064308       0.06470388       2.59576806       0.00000000
Si       2.72935692       0.06470388       2.59576806       0.00000000
Si      -2.70064308      -2.65029612      -0.11923194       0.00000000
Si       0.01435692       2.77970388       2.59576806       0.00000000
Si       2.72935692      -2.65029612      -0.11923194       0.00000000
