10
Lattice="16.28999089631971 0.0 0.0 0.0 16.28999089631971 0.0 0.0 0.0 34.56954931742767" Properties=species:S:1:pos:R:3:initial_magmoms:R:1 pbc="T T T"
Si       1.50887754       1.95170068       0.44166081       0.00000000
Si      -1.82050361       1.09726182       1.39833905       0.00000000
Si       1.22030019      -1.73249037       1.59777089       0.00000000
Si      -0.56995615       0.08058663      -2.65366380       0.00000000
Si       1.92764457      -2.46446523      -1.06166602       0.00000000
Si       2.24938836       2.38437123      -1.74313593       0.00000000
Si       2.08942056      -0.13791114       3.21057406       0.00000000
Si      -3.85787015      -0.52906662      -0.84370489       0.00000000
Si       1.29044493       1.27860358      -3.55745060       0.00000000
Si      -0.64901152       2.43142978       3.17480838       0.00000000
