10
Lattice="16.28999089631971 0.0 0.0 0.0 16.28999089631971 0.0 0.0 0.0 34.56954931742767" Properties=species:S:1:pos:R:3:initial_magmoms:R:1 pbc="T T T"
Si       1.35870003       1.34957111      -1.37749360       0.00000000
Si      -1.35943308      -1.36391185      -1.37687135       0.00000000
Si       1.40467041      -1.33733651       1.41510529       0.00000000
Si      -1.43167923       1.38513218       1.41285827       0.00000000
Si       2.54993886       0.34071512       2.72885261       0.00000000
Si       2.70334179       2.70442670      -0.00636080       0.00000000
Si      -2.71803537      -2.72080208      -0.00134821       0.00000000
Si      -2.73496068       2.70398687      -0.01330928       0.00000000
Si       0.00068418       2.70514346      -2.73680361       0.00000000
Si      -2.66154165      -0.09817820       2.77839080       0.00000000
