10
Lattice="16.28999089631971 0.0 0.0 0.0 16.28999089631971 0.0 0.0 0.0 34.56954931742767" Properties=species:S:1:pos:R:3:initial_magmoms:R:1 pbc="T T T"
Si      -1.30328145       1.31885469      -1.42616755       0.00000000
Si       0.34753086       1.93205916       1.27340463       0.00000000
Si      -1.22986242      -1.48331039       1.36553253       0.00000000
Si       1.43167923      -1.38513218      -1.41285827       0.00000000
Si       2.55005289       2.52605772       0.05095554       0.00000000
Si       2.34657450       1.62153918       2.40258502       0.00000000
Si      -2.73049722       2.60135010       0.06270920       0.00000000
Si      -2.63793744      -0.03675024      -2.79232234       0.00000000
Si       0.07273485       2.68135029      -2.78976419       0.00000000
Si       0.07224615      -2.74904404      -2.78972962       0.00000000
