10
Lattice="16.28999089631971 0.0 0.0 0.0 16.28999089631971 0.0 0.0 0.0 34.56954931742767" Properties=species:S:1:pos:R:3:initial_magmoms:R:1 pbc="T T T"
Si       1.95310584       1.23585225       0.60202904       0.00000000
Si       0.28440711      -1.85852188      -1.47373528       0.00000000
Si      -0.29512593      -1.59796333       1.78672815       0.00000000
Si      -1.94404860       1.10666767      -0.93828723       0.00000000
Si      -0.73244727      -3.29365459       0.12973959       0.00000000
Si      -1.53932355       3.42343635      -0.47778601       0.00000000
Si       2.76042195      -2.14411816      -1.46986349       0.00000000
Si       1.53595152       2.33617659       2.67547720       0.00000000
Si      -1.64498049      -1.68123781      -3.07721015       0.00000000
Si      -3.90027560      -0.26229669      -0.38980646       0.00000000
