10
Lattice="16.28999089631971 0.0 0.0 0.0 16.28999089631971 0.0 0.0 0.0 34.56954931742767" Properties=species:S:1:pos:R:3:initial_magmoms:R:1 pbc="T T T"
Si       2.01207564      -1.22210838       0.17879381       0.00000000
Si       0.79449588       1.58996916      -1.56845590       0.00000000
Si      -0.41715432       1.10032434       2.07344816       0.00000000
Si      -1.95310584      -1.23585225      -0.60202904       0.00000000
Si      -1.29542967       2.68392411      -2.02892255       0.00000000
Si       2.57401548      -1.68074649      -2.02225063       0.00000000
Si       3.74037948       0.33300018       0.49783636       0.00000000
Si      -2.24823177      -2.83381559       1.18469912       0.00000000
Si       1.34677575       0.38765313       3.55658636       0.00000000
Si       2.34354456       0.47886084      -3.14043789       0.00000000
