10
Lattice="16.28999089631971 0.0 0.0 0.0 16.28999089631971 0.0 0.0 0.0 34.56954931742767" Properties=species:S:1:pos:R:3:initial_magmoms:R:1 pbc="T T T"
Si       1.79321949      -0.95049073      -1.13868702       0.00000000
Si       1.42475598       1.22554117       1.40246462       0.00000000
Si      -1.28107818      -1.46804032       1.33472555       0.00000000
Si      -1.86162120       0.62157150      -1.43418769       0.00000000
Si       0.66327993      -0.49570651      -3.16864666       0.00000000
Si      -2.63826324       2.44260943      -0.00636080       0.00000000
Si      -2.15019855      -3.06261955      -0.27807761       0.00000000
Si       0.06550209       2.59954729       2.76552197       0.00000000
Si       2.21654772       2.25037114      -2.11793919       0.00000000
Si       3.12753339       2.20475914       0.08183112       0.00000000
