10
Lattice="16.28999089631971 0.0 0.0 0.0 16.28999089631971 0.0 0.0 0.0 34.56954931742767" Properties=species:S:1:pos:R:3:initial_magmoms:R:1 pbc="T T T"
Si       0.91098567      -0.04561200       2.19977031       0.00000000
Si      -1.77951960       1.68863769      -0.01040544       0.00000000
Si       1.59930333       1.55475018      -1.08544989       0.00000000
Si       0.60966954      -2.03766234      -1.31468070       0.00000000
Si       0.09456345       3.12407991      -0.01171908       0.00000000
Si      -1.55326779      -2.74607765      -1.05070747       0.00000000
Si      -0.42332823      -3.20086187       0.97925217       0.00000000
Si       2.98387188      -1.88651884       0.00871153       0.00000000
Si       0.69252048       1.14728841      -3.44171168       0.00000000
Si       3.66619482       0.41176233      -0.58612704       0.00000000
