10
Lattice="16.28999089631971 0.0 0.0 0.0 16.28999089631971 0.0 0.0 0.0 34.56954931742767" Properties=species:S:1:pos:R:3:initial_magmoms:R:1 pbc="T T T"
Si      -1.45731678       1.23939207      -1.44722042       0.00000000
Si       1.27048186      -1.48753927      -1.44027194       0.00000000
Si       0.76400133       1.70913051       1.56655457       0.00000000
Si      -1.63458456      -1.15154010       1.41991046       0.00000000
Si       2.52965162       2.51558325       0.02786307       0.00000000
Si      -0.09598437       2.59372638      -2.82585482       0.00000000
Si       2.62221140      -0.12251709      -2.82716846       0.00000000
Si      -2.79169584       2.69851995       0.00376808       0.00000000
Si       2.56265516      -2.92552829       0.04328110       0.00000000
Si      -2.74996086      -2.75369288       0.03985871       0.00000000
