10
Lattice="16.28999089631971 0.0 0.0 0.0 16.28999089631971 0.0 0.0 0.0 34.56954931742767" Properties=species:S:1:pos:R:3:initial_magmoms:R:1 pbc="T T T"
Si      -1.35782037      -1.35656604      -1.35723583       0.00000000
Si      -1.35661491       1.35588186       1.35969027       0.00000000
Si       1.35868374      -1.35496962       1.35986312       0.00000000
Si       1.35777150       1.35873261      -1.35702842       0.00000000
Si       2.71443528      -2.71261080      -0.00076053       0.00000000
Si      -0.00001629      -2.71383255      -2.71516306       0.00000000
Si      -2.71520091       0.00164529      -2.71467909       0.00000000
Si       2.71542897       0.00102627      -2.71492107       0.00000000
Si      -0.00057015       2.71632492      -2.71474823       0.00000000
Si      -2.71524978       2.71583622       0.00034570       0.00000000
