10
Lattice="16.28999089631971 0.0 0.0 0.0 16.28999089631971 0.0 0.0 0.0 34.56954931742767" Properties=species:S:1:pos:R:3:initial_magmoms:R:1 pbc="T T T"
Si       1.09230966       2.01238515       0.62214853       0.00000000
Si       1.44081792      -1.53078759       1.10501626       0.00000000
Si      -2.27227581      -0.31879530       0.70107085       0.00000000
Si      -0.17164773       0.01290168      -2.44140665       0.00000000
Si       0.29387160       3.18844170      -1.20353953       0.00000000
Si       1.63046610      -1.45344267      -2.88759607       0.00000000
Si      -2.51659323      -2.62329273       0.01510690       0.00000000
Si      -3.48302029       1.41550326      -0.57368199       0.00000000
Si      -0.04367349       3.08530971       2.34315993       0.00000000
Si       1.01913498      -3.73291866       0.29397961       0.00000000
