10
Lattice="16.28999089631971 0.0 0.0 0.0 16.28999089631971 0.0 0.0 0.0 34.56954931742767" Properties=species:S:1:pos:R:3:initial_magmoms:R:1 pbc="T T T"
Si      -0.79843806       1.17605655      -1.82568806       0.00000000
Si      -1.13598315       1.07292456       1.72101141       0.00000000
Si       2.32674957       0.39827421      -0.02990268       0.00000000
Si      -1.09230966      -2.01238515      -0.62214853       0.00000000
Si       2.54050695      -0.33741477      -2.27799629       0.00000000
Si       0.34850826      -3.54317274       0.48286773       0.00000000
Si      -3.15248967       1.33133283      -1.57951816       0.00000000
Si      -1.46329812       3.33125613       1.22846419       0.00000000
Si      -1.26395739      -1.99948347      -3.06355517       0.00000000
Si      -0.20183310       0.78670926       3.80866765       0.00000000
