10
Lattice="16.28999089631971 0.0 0.0 0.0 16.28999089631971 0.0 0.0 0.0 34.56954931742767" Properties=species:S:1:pos:R:3:initial_magmoms:R:1 pbc="T T T"
Si       1.29371922      -1.73341890       0.92297291       0.00000000
Si      -2.32674957      -0.39827421       0.02990268       0.00000000
Si       0.21375738      -0.73568898      -2.24809362       0.00000000
Si       0.60562962       2.18015586       0.80899705       0.00000000
Si       0.32436648      -3.64912290      -0.02578890       0.00000000
Si      -3.12518763       0.77778234      -1.79578538       0.00000000
Si       0.94222989      -1.60966377       3.25980661       0.00000000
Si       2.96789139       2.49934212       0.52103254       0.00000000
Si       0.18077013      -3.13103574      -2.36386710       0.00000000
Si       3.61888866      -1.50449553       0.33197157       0.00000000
