10
Lattice="16.28999089631971 0.0 0.0 0.0 16.28999089631971 0.0 0.0 0.0 34.56954931742767" Properties=species:S:1:pos:R:3:initial_magmoms:R:1 pbc="T T T"
Si       1.34511417      -1.27438299      -1.41956131       0.00000000
Si       1.36045935       1.34154666       1.36538734       0.00000000
Si      -1.35384561      -1.37332845       1.35664124       0.00000000
Si      -1.33555194       1.35053874      -1.43950449       0.00000000
Si      -0.46731123      -2.17701189      -2.66625127       0.00000000
Si      -2.20467231      -0.24404049      -3.05230766       0.00000000
Si      -2.71103067       2.68896232      -0.00704182       0.00000000
Si       2.70169650       2.69886442       0.01860188       0.00000000
Si       0.00537570       2.69812690       2.71920079       0.00000000
Si      -2.70998811      -0.01374876       2.71854396       0.00000000
