10
Lattice="16.28999089631971 0.0 0.0 0.0 16.28999089631971 0.0 0.0 0.0 34.56954931742767" Properties=species:S:1:pos:R:3:initial_magmoms:R:1 pbc="T T T"
Si      -1.01685438      -1.43513271       1.60347487       0.00000000
Si      -0.28440711       1.85852188       1.47373528       0.00000000
Si       2.47601484      -0.28559628       0.00387179       0.00000000
Si      -1.92938760       0.17728407      -1.60347487       0.00000000
Si      -0.57953304       0.26055855       3.26046344       0.00000000
Si       0.84789450      -2.09645784      -2.78060325       0.00000000
Si       2.78669772      -0.95606010      -2.20761265       0.00000000
Si      -2.22845571       2.96518955       0.53544805       0.00000000
Si      -3.15778392      -1.97107371       0.65191293       0.00000000
Si      -0.97718823      -0.76844817      -3.58178758       0.00000000
