10
Lattice="16.28999089631971 0.0 0.0 0.0 16.28999089631971 0.0 0.0 0.0 34.56954931742767" Properties=species:S:1:pos:R:3:initial_magmoms:R:1 pbc="T T T"
Si       1.38124702       1.34130883      -1.30532068       0.00000000
Si       1.36295335      -1.23091734       1.46822835       0.00000000
Si      -1.34800170       1.49039491       1.44897656       0.00000000
Si      -1.17149209      -1.33416796      -1.77646933       0.00000000
Si       2.15788906      -0.47972910      -2.73314757       0.00000000
Si      -2.59420435      -2.57471662      -0.10978604       0.00000000
Si      -0.29474963       2.34874759      -2.82150739       0.00000000
Si      -2.11340500       0.58592524      -3.04451568       0.00000000
Si       2.73843208      -2.56934092       0.03576568       0.00000000
Si       0.00627817      -2.58089053       2.83595605       0.00000000
