10
Lattice="16.28999089631971 0.0 0.0 0.0 16.28999089631971 0.0 0.0 0.0 34.56954931742767" Properties=species:S:1:pos:R:3:initial_magmoms:R:1 pbc="T T T"
Si       0.05607018      -1.72638162       1.58643207       0.00000000
Si       1.30629510       1.93698267       0.42600079       0.00000000
Si      -0.96780519      -0.71203590      -2.30281725       0.00000000
Si      -2.58220935       0.25045875      -0.90153978       0.00000000
Si      -1.25503047       3.25385324       0.37950472       0.00000000
Si       1.92194307      -2.99501424      -0.01106226       0.00000000
Si      -1.88273304      -2.86677936       1.01344147       0.00000000
Si       1.28534616       2.30479784      -2.59289050       0.00000000
Si       3.37652604       1.64126704      -0.91370827       0.00000000
Si      -0.25461270      -1.05591780       3.79791652       0.00000000
