10
Lattice="16.28999089631971 0.0 0.0 0.0 16.28999089631971 0.0 0.0 0.0 34.56954931742767" Properties=species:S:1:pos:R:3:initial_magmoms:R:1 pbc="T T T"
Si      -1.36334268      -1.17833715      -1.56634715       0.00000000
Si       1.12560642       1.78922844      -1.11379693       0.00000000
Si      -0.95219937       0.94573224       1.97831270       0.00000000
Si       1.82508273      -1.32800967       0.80118432       0.00000000
Si      -2.75447447      -2.26525482       0.08569796       0.00000000
Si       0.62519391      -2.82188412       2.13111020       0.00000000
Si       0.97718823       0.76844817       3.58178758       0.00000000
Si       2.74001058       0.82673379      -2.51507440       0.00000000
Si       0.17381430      -2.38161429      -2.98570450       0.00000000
Si       0.04452057       3.80961917      -0.37286737       0.00000000
