10
Lattice="16.28999089631971 0.0 0.0 0.0 16.28999089631971 0.0 0.0 0.0 34.56954931742767" Properties=species:S:1:pos:R:3:initial_magmoms:R:1 pbc="T T T"
Si       0.91144179      -0.73384821       2.02200864       0.00000000
Si       1.48884084       0.25378191      -1.79485200       0.00000000
Si      -1.67435136      -1.14531732      -1.19410204       0.00000000
Si      -1.41079545       1.77468295       0.68579110       0.00000000
Si      -1.93227093       0.80873334      -2.57467233       0.00000000
Si       1.33253829       1.33050204       2.95044354       0.00000000
Si      -1.73576466       2.83156594      -1.37144393       0.00000000
Si       2.29012965      -1.99498743      -2.04544681       0.00000000
Si      -3.27119653       0.57666600       1.58957791       0.00000000
Si      -3.44688907      -1.42511436       0.29754028       0.00000000
