10
Lattice="16.28999089631971 0.0 0.0 0.0 16.28999089631971 0.0 0.0 0.0 34.56954931742767" Properties=species:S:1:pos:R:3:initial_magmoms:R:1 pbc="T T T"
Si       1.35034326       1.35957317      -1.37500459       0.00000000
Si      -1.36358703      -1.35635650      -1.37441691       0.00000000
Si      -1.35529542       1.41013733       1.37859983       0.00000000
Si       1.41190317      -1.27313387       1.48984470       0.00000000
Si      -0.23643306      -2.32102919       3.00247074       0.00000000
Si       2.70454725       2.71995107       0.00276557       0.00000000
Si       2.71008585      -2.71594766       0.01092398       0.00000000
Si       2.52727947       0.32901890       2.86989645       0.00000000
Si      -2.71461447      -2.72067176      -0.00134821       0.00000000
Si       2.70827766       0.00035838      -2.73514427       0.00000000
