10
Lattice="16.28999089631971 0.0 0.0 0.0 16.28999089631971 0.0 0.0 0.0 34.56954931742767" Properties=species:S:1:pos:R:3:initial_magmoms:R:1 pbc="T T T"
Si      -1.10788290      -1.33878210       1.60382057       0.00000000
Si       1.31701392      -1.39299522      -1.41873510       0.00000000
Si      -1.40467041       1.33733651      -1.41510529       0.00000000
Si       1.14526845       1.67805163       1.31374732       0.00000000
Si      -2.65952169      -2.68839231      -0.02464810       0.00000000
Si       2.67633297       2.73781387      -0.03878706       0.00000000
Si       2.77246026      -2.65607295       0.05970165       0.00000000
Si       2.66804136      -0.02867996      -2.79180379       0.00000000
Si      -0.04597038       2.68690762      -2.79259889       0.00000000
Si      -0.04590522      -2.74807887      -2.79536446       0.00000000
