10
Lattice="16.28999089631971 0.0 0.0 0.0 16.28999089631971 0.0 0.0 0.0 34.56954931742767" Properties=species:S:1:pos:R:3:initial_magmoms:R:1 pbc="T T T"
Si       1.53106452       1.05976224      -1.35253437       0.00000000
Si      -1.14526845      -1.67805163      -1.31374732       0.00000000
Si       2.09117988      -0.66353080       1.67918223       0.00000000
Si       0.02094894      -0.36781517       3.01889129       0.00000000
Si      -1.63504359       2.66595624       1.08659068       0.00000000
Si       0.15340293       2.36371158      -2.73521341       0.00000000
Si      -1.28534616      -2.30479784       2.59289050       0.00000000
Si       2.53737927       2.74162329      -0.09444406       0.00000000
Si      -2.54993886      -0.34071512      -2.72885261       0.00000000
Si       0.70377687       3.48032592       1.25027759       0.00000000
