10
Lattice="16.28999089631971 0.0 0.0 0.0 16.28999089631971 0.0 0.0 0.0 34.56954931742767" Properties=species:S:1:pos:R:3:initial_magmoms:R:1 pbc="T T T"
Si      -0.05898609      -0.29698299      -2.28204093       0.00000000
Si      -2.09725605       1.07883783       0.21059781       0.00000000
Si       2.13543981       0.84435957       0.66487651       0.00000000
Si      -0.65819745      -1.84200804       1.38236791       0.00000000
Si      -2.05503237      -1.69614738      -2.25590634       0.00000000
Si      -2.10843099       1.29679803       2.57086968       0.00000000
Si      -1.15711128      -0.72540999       3.36379188       0.00000000
Si      -3.60408105      -0.58503906      -0.68392435       0.00000000
Si       2.06231400      -1.00758537      -3.05550046       0.00000000
Si       2.03926365       1.49257125       2.89032706       0.00000000
