10
Lattice="16.28999089631971 0.0 0.0 0.0 16.28999089631971 0.0 0.0 0.0 34.56954931742767" Properties=species:S:1:pos:R:3:initial_magmoms:R:1 pbc="T T T"
Si       2.06689149      -1.14298785       0.49932285       0.00000000
Si      -1.50473988       1.56932973       1.07373080       0.00000000
Si       1.05479379       0.95014683      -1.98719708       0.00000000
Si      -1.59930333      -1.55475018       1.08544989       0.00000000
Si      -0.90678285      -0.40746177      -2.35626180       0.00000000
Si      -3.37882293       0.13388751       1.07504445       0.00000000
Si      -0.68831766      -1.60036218       3.28522020       0.00000000
Si      -0.98963379      -3.59241252      -0.22923081       0.00000000
Si       3.28126212       0.48721761       1.77829318       0.00000000
Si       1.38456855      -3.44126902       1.09416142       0.00000000
