10
Lattice="16.28999089631971 0.0 0.0 0.0 16.28999089631971 0.0 0.0 0.0 34.56954931742767" Properties=species:S:1:pos:R:3:initial_magmoms:R:1 pbc="T T T"
Si       1.30886892      -1.35966114       1.42952080       0.00000000
Si       1.29624417       1.51013187      -1.32710642       0.00000000
Si      -1.06992720      -1.75819599      -1.25308803       0.00000000
Si      -1.42737867       1.33923348       1.41328002       0.00000000
Si       0.73933794      -3.41482383      -1.15323493       0.00000000
Si      -2.74263327       2.57802282      -0.21225024       0.00000000
Si      -0.79803081       3.31126830      -1.62789624       0.00000000
Si       2.74022235      -2.59628880      -0.05778303       0.00000000
Si       2.64582180      -0.00988803       2.80065360       0.00000000
Si      -0.06481791       2.70743058       2.80051532       0.00000000
