10
Lattice="16.28999089631971 0.0 0.0 0.0 16.28999089631971 0.0 0.0 0.0 34.56954931742767" Properties=species:S:1:pos:R:3:initial_magmoms:R:1 pbc="T T T"
Si       0.18171495       1.05249690      -2.12858662       0.00000000
Si      -1.42954524      -1.83480786       0.67545480       0.00000000
Si      -1.28865303       1.70875584       1.17992852       0.00000000
Si       2.11059756       0.16674444       1.51971281       0.00000000
Si       0.91849536       2.13938199       1.87792268       0.00000000
Si       0.18171495      -2.96727237       1.99867418       0.00000000
Si      -0.81580320      -0.65743182      -3.46781171       0.00000000
Si       1.23668793      -1.23241995       3.27726425       0.00000000
Si      -2.48238423      -1.81472229      -2.16132400       0.00000000
Si      -1.52550963      -3.53766672      -0.93583279       0.00000000
