10
Lattice="16.28999089631971 0.0 0.0 0.0 16.28999089631971 0.0 0.0 0.0 34.56954931742767" Properties=species:S:1:pos:R:3:initial_magmoms:R:1 pbc="T T T"
Si       0.74051082       0.43267054      -2.18479674       0.00000000
Si       1.86162120      -0.62157150       1.43418769       0.00000000
Si      -0.77664204       1.82103792       1.42782689       0.00000000
Si      -1.50887754      -1.95170068      -0.44166081       0.00000000
Si       2.52490113      -1.11727801      -1.73445897       0.00000000
Si      -2.15788906       0.47972910       2.73314757       0.00000000
Si       0.58054302      -2.08961182       2.76891325       0.00000000
Si      -3.32938115      -0.85443886       0.95667824       0.00000000
Si      -2.45263869       2.82847668      -0.08835982       0.00000000
Si      -0.28857735      -3.68419105       1.15611008       0.00000000
