10
Lattice="16.28999089631971 0.0 0.0 0.0 16.28999089631971 0.0 0.0 0.0 34.56954931742767" Properties=species:S:1:pos:R:3:initial_magmoms:R:1 pbc="T T T"
Si      -1.35702216       1.35743941       1.35744325       0.00000000
Si      -1.35912357      -1.35676152      -1.35650987       0.00000000
Si       1.35775521      -1.35760860       1.35771981       0.00000000
Si       1.35798327       1.35765747      -1.35747782       0.00000000
Si      -2.71655298      -0.00043983      -2.71035789       0.00000000
Si       0.00017919      -2.71352304       2.71502478       0.00000000
Si      -2.71407690      -0.00045612       2.71488650       0.00000000
Si      -2.71476108       2.71490022       0.00031113       0.00000000
Si      -2.71521720      -2.71490769       0.00027656       0.00000000
Si       0.00009774       2.71553390       2.71492107       0.00000000
