10
Lattice="16.28999089631971 0.0 0.0 0.0 16.28999089631971 0.0 0.0 0.0 34.56954931742767" Properties=species:S:1:pos:R:3:initial_magmoms:R:1 pbc="T T T"
Si       1.35102744       1.36431526      -1.37306870       0.00000000
Si      -1.36291914      -1.35508365      -1.37662936       0.00000000
Si      -1.31701392       1.39299522       1.41873510       0.00000000
Si       1.45544634      -1.26307773       1.47843674       0.00000000
Si      -2.70283680      -2.69917155      -0.00262729       0.00000000
Si       2.72241738      -2.70519885       0.00577312       0.00000000
Si       2.71461447       2.72067176       0.00134821       0.00000000
Si      -0.00589698      -2.70702333      -2.73327751       0.00000000
Si       2.70936909       0.00617391      -2.73262069       0.00000000
Si      -2.72168433       2.73033173       0.00362980       0.00000000
