10
Lattice="16.28999089631971 0.0 0.0 0.0 16.28999089631971 0.0 0.0 0.0 34.56954931742767" Properties=species:S:1:pos:R:3:initial_magmoms:R:1 pbc="T T T"
Si      -1.98320976      -1.36604682       0.16192386       0.00000000
Si       1.70153937      -1.75542669      -0.11508209       0.00000000
Si       0.03012021       1.26236097      -2.14856783       0.00000000
Si       1.14140772       1.03780332       2.14566399       0.00000000
Si      -0.52862679       3.27023446      -0.74072215       0.00000000
Si       1.30709331       3.08300697       0.99878398       0.00000000
Si       0.52797519      -3.19885101       1.64412868       0.00000000
Si      -1.87649397      -2.27307402      -2.31785501       0.00000000
Si      -0.99261486      -0.40035933      -3.67395005       0.00000000
Si       3.89275614      -0.90901458       0.49890801       0.00000000
