10
Lattice="16.28999089631971 0.0 0.0 0.0 16.28999089631971 0.0 0.0 0.0 34.56954931742767" Properties=species:S:1:pos:R:3:initial_magmoms:R:1 pbc="T T T"
Si       1.43954308      -1.83306713      -0.11746739       0.00000000
Si      -2.08772640       0.18994954       1.18252123       0.00000000
Si      -0.60098697       1.01935164      -2.09740487       0.00000000
Si       1.55809682       1.11943740       1.65968499       0.00000000
Si      -2.37063483       2.30468151      -0.95754248       0.00000000
Si      -1.90101042       2.22738546       2.28650041       0.00000000
Si      -2.25341199      -1.85525411       2.32940124       0.00000000
Si       2.11035714       3.20087586       0.49759437       0.00000000
Si       0.49793643      -3.80207201       0.68264527       0.00000000
Si      -1.71636327      -0.58280114      -3.47745662       0.00000000
