10
Lattice="16.28999089631971 0.0 0.0 0.0 16.28999089631971 0.0 0.0 0.0 34.56954931742767" Properties=species:S:1:pos:R:3:initial_magmoms:R:1 pbc="T T T"
Si       0.18671598       2.03743591       1.10397917       0.00000000
Si      -0.16568559      -2.04520365       1.14688001       0.00000000
Si       2.08772640      -0.18994954      -1.18252123       0.00000000
Si      -1.83572010       0.18722749      -1.73950612       0.00000000
Si      -0.28290843       2.11473196      -2.14006372       0.00000000
Si      -1.30709331      -3.08300697      -0.99878398       0.00000000
Si       2.26774719       1.94883460       2.15990665       0.00000000
Si       1.48673943       0.82940209      -3.27992610       0.00000000
Si       3.64582322       0.92948785       0.47716376       0.00000000
Si      -1.93458411       2.74803829       1.87743870       0.00000000
