10
Lattice="16.28999089631971 0.0 0.0 0.0 16.28999089631971 0.0 0.0 0.0 34.56954931742767" Properties=species:S:1:pos:R:3:initial_magmoms:R:1 pbc="T T T"
Si       0.25599735      -1.71668255      -1.56416927       0.00000000
Si      -1.13191065      -1.02278394       1.79900035       0.00000000
Si       1.92181016       0.69905277       1.27426887       0.00000000
Si      -1.56206439       1.75541040      -0.61793104       0.00000000
Si       0.44584101      -0.18513585      -3.28238054       0.00000000
Si      -1.65824055       2.40362208       1.60751951       0.00000000
Si       0.68132925       2.56841172       2.04696787       0.00000000
Si       0.54973863      -2.56241211       2.39864409       0.00000000
Si      -2.59454088      -2.36637337       0.64648550       0.00000000
Si      -1.45637487      -3.34338308      -1.12935324       0.00000000
