10
Lattice="16.28999089631971 0.0 0.0 0.0 16.28999089631971 0.0 0.0 0.0 34.56954931742767" Properties=species:S:1:pos:R:3:initial_magmoms:R:1 pbc="T T T"
Si      -0.23848560       2.02502619      -1.17142440       0.00000000
Si      -1.37689596       0.77789637       1.77708325       0.00000000
Si       2.37421863      -0.24731478       0.21695861       0.00000000
Si      -1.05580377      -2.08761956      -0.63369476       0.00000000
Si      -2.05921890      -1.52038480       2.37192181       0.00000000
Si      -0.59504112      -3.17755088       1.58297512       0.00000000
Si      -0.14946075       1.55978379      -3.42328610       0.00000000
Si       2.85340527      -2.49185591      -0.26881297       0.00000000
Si      -2.38899366       2.87103105      -0.70943669       0.00000000
Si      -0.16252533       2.40810183       3.05605358       0.00000000
