10
Lattice="16.28999089631971 0.0 0.0 0.0 16.28999089631971 0.0 0.0 0.0 34.56954931742767" Properties=species:S:1:pos:R:3:initial_magmoms:R:1 pbc="T T T"
Si       0.08902485      -0.46524240      -2.25186170       0.00000000
Si       0.23848560      -2.02502619       1.17142440       0.00000000
Si      -2.15050806       0.84600486       0.46198772       0.00000000
Si       1.57973904       1.74907359       0.27337615       0.00000000
Si      -1.13841036      -1.24712982       2.94850765       0.00000000
Si       1.60287084       2.04250536       2.66047400       0.00000000
Si       2.61270423      -2.27234097       1.38838302       0.00000000
Si      -2.16114543      -0.85245570      -2.94425559       0.00000000
Si       1.03522950       1.36552554      -3.41772040       0.00000000
Si       3.63019392       1.18788309      -0.67351891       0.00000000
