10
Lattice="16.28999089631971 0.0 0.0 0.0 16.28999089631971 0.0 0.0 0.0 34.56954931742767" Properties=species:S:1:pos:R:3:initial_magmoms:R:1 pbc="T T T"
Si      -1.35654975      -1.35728280       1.35695928       0.00000000
Si       1.35819408       1.35726651       1.35695928       0.00000000
Si      -1.35625653       1.35676152      -1.35955200       0.00000000
Si       1.35780638      -1.35884664      -1.36090021       0.00000000
Si      -2.71396287      -2.71393029      -0.00006914       0.00000000
Si      -2.71419093       0.00039096       2.71419511       0.00000000
Si       0.00092038      -2.71482624       2.71436796       0.00000000
Si       0.00044838       2.71510317       2.71429882       0.00000000
Si       2.71561535      -2.71430496      -0.00065682       0.00000000
Si       2.71576196       0.00013032       2.71419511       0.00000000
