10
Lattice="16.28999089631971 0.0 0.0 0.0 16.28999089631971 0.0 0.0 0.0 34.56954931742767" Properties=species:S:1:pos:R:3:initial_magmoms:R:1 pbc="T T T"
Si       1.35654975       1.35728280      -1.35695928       0.00000000
Si      -1.35741312      -1.35664749      -1.35702842       0.00000000
Si       1.35747013      -1.35754344       1.35740868       0.00000000
Si      -1.35764118       1.35767376       1.35723583       0.00000000
Si      -2.71502172      -0.00130320       2.71378028       0.00000000
Si       2.71395377      -0.00063531       2.71502478       0.00000000
Si       0.00070047       2.71443528       2.71474823       0.00000000
Si       2.71474383       2.71454931       0.00000000       0.00000000
Si      -0.00144981      -2.71547132       2.71416054       0.00000000
Si       2.71474872      -2.71497448      -0.00017285       0.00000000
