10
Lattice="16.28999089631971 0.0 0.0 0.0 16.28999089631971 0.0 0.0 0.0 34.56954931742767" Properties=species:S:1:pos:R:3:initial_magmoms:R:1 pbc="T T T"
Si       1.35584928       1.35005004      -1.37320697       0.00000000
Si      -1.35892809      -1.36445040      -1.36995744       0.00000000
Si       1.37559276      -1.26087858       1.45676162       0.00000000
Si      -1.46745207       1.27097838       1.45244043       0.00000000
Si      -0.34355610      -2.34795915       2.63969769       0.00000000
Si       2.70505224       2.70063765      -0.00190133       0.00000000
Si      -2.72487717       2.70026298       0.00642994       0.00000000
Si       2.70997182      -2.72000646       0.00577312       0.00000000
Si       0.00149868       2.70676269      -2.73165274       0.00000000
Si       2.71585251      -0.00969255      -2.73154904       0.00000000
