10
Lattice="16.28999089631971 0.0 0.0 0.0 16.28999089631971 0.0 0.0 0.0 34.56954931742767" Properties=species:S:1:pos:R:3:initial_magmoms:R:1 pbc="T T T"
Si       1.57930314      -1.54279332      -0.76706416       0.00000000
Si       0.90882954       1.87965423      -1.09423056       0.00000000
Si       0.25265790      -0.27761418       2.32998893       0.00000000
Si      -2.27074455      -0.73526544      -0.48480363       0.00000000
Si      -0.35103321      -2.60488503       2.07776935       0.00000000
Si       3.37198832      -0.36865899       0.42278582       0.00000000
Si      -0.45036963       1.08089037      -3.30906825       0.00000000
Si       1.26654491      -0.86364693      -3.21541929       0.00000000
Si      -2.43206442      -2.51628372       1.02184188       0.00000000
Si       2.56587767       0.10984347       2.65407863       0.00000000
