10
Lattice="16.28999089631971 0.0 0.0 0.0 16.28999089631971 0.0 0.0 0.0 34.56954931742767" Properties=species:S:1:pos:R:3:initial_magmoms:R:1 pbc="T T T"
Si      -1.35545172       1.35597960      -1.35868776       0.00000000
Si       1.35780158      -1.35909099      -1.35841120       0.00000000
Si       1.35748881       1.35553977       1.37414035       0.00000000
Si      -1.36133241      -1.35433431       1.37863440       0.00000000
Si       0.09598437      -2.59372638       2.82585482       0.00000000
Si      -2.71379337      -0.00078192      -2.71620015       0.00000000
Si       0.00084594       2.71393029      -2.71609644       0.00000000
Si      -2.71553640      -2.71471221       0.00086424       0.00000000
Si       2.71992251       2.71114470      -0.00120993       0.00000000
Si      -2.71545495       2.71572219      -0.00034570       0.00000000
