10
Lattice="16.28999089631971 0.0 0.0 0.0 16.28999089631971 0.0 0.0 0.0 34.56954931742767" Properties=species:S:1:pos:R:3:initial_magmoms:R:1 pbc="T T T"
Si      -1.25942877       0.61330221      -1.89856071       0.00000000
Si       2.19891284       0.29698299      -0.88854162       0.00000000
Si      -0.49782240      -2.22814620       0.74971024       0.00000000
Si      -0.92887209       1.20190878       1.88497487       0.00000000
Si      -3.35899800       1.21508739      -1.04030203       0.00000000
Si      -2.83739220      -2.39293584       0.31026188       0.00000000
Si       2.67879995       2.60586243      -0.63179344       0.00000000
Si       0.62727318       1.05715584       3.59851925       0.00000000
Si       3.60654803      -1.29007026       0.18211249       0.00000000
Si      -0.32804802       2.56865607      -2.97121985       0.00000000
