10
Lattice="16.28999089631971 0.0 0.0 0.0 16.28999089631971 0.0 0.0 0.0 34.56954931742767" Properties=species:S:1:pos:R:3:initial_magmoms:R:1 pbc="T T T"
Si       0.25539462      -0.34243209       2.30475314       0.00000000
Si       1.24048091      -1.86935895      -0.77269900       0.00000000
Si      -2.33956980      -0.16478964      -0.43944836       0.00000000
Si       0.49782240       2.22814620      -0.74971024       0.00000000
Si      -0.68132925      -2.56841172      -2.04696787       0.00000000
Si      -2.24339364      -0.81300132      -2.66489891       0.00000000
Si      -0.43104969       3.43005498       1.13526463       0.00000000
Si       1.96829856       1.12114296       2.86142690       0.00000000
Si      -1.79506026       0.21875841       3.25164820       0.00000000
Si      -2.31060618       2.24738469       2.03984654       0.00000000
