10
Lattice="16.28999089631971 0.0 0.0 0.0 16.28999089631971 0.0 0.0 0.0 34.56954931742767" Properties=species:S:1:pos:R:3:initial_magmoms:R:1 pbc="T T T"
Si       2.05045488      -0.56119050      -0.94689505       0.00000000
Si      -1.57973904      -1.74907359      -0.27337615       0.00000000
Si       0.02313180       0.29343177       2.38709785       0.00000000
Si      -0.51554592       2.02862628      -1.21180166       0.00000000
Si      -1.49071419      -2.21431599      -2.52523785       0.00000000
Si      -0.35189658       2.65416228       2.56540769       0.00000000
Si      -1.40375817       3.40335567       0.51035054       0.00000000
Si       1.79506026      -0.21875841      -3.25164820       0.00000000
Si      -0.54450954      -0.38354805      -3.69109655       0.00000000
Si       2.64365264      -2.67734295      -0.11822792       0.00000000
