10
Lattice="16.28999089631971 0.0 0.0 0.0 16.28999089631971 0.0 0.0 0.0 34.56954931742767" Properties=species:S:1:pos:R:3:initial_magmoms:R:1 pbc="T T T"
Si      -0.76400133      -1.70913051      -1.56655457       0.00000000
Si       1.76565029       0.80645274      -1.53869150       0.00000000
Si       0.31275823      -0.67914639       2.44835513       0.00000000
Si      -1.71691454       1.94453730      -0.09364896       0.00000000
Si      -0.35771537       2.74330116       2.12118873       0.00000000
Si      -1.26654491       0.86364693       3.21541929       0.00000000
Si      -2.39858588      -2.86067061      -0.14664411       0.00000000
Si      -2.22131810      -0.46973844      -3.01377499       0.00000000
Si       2.06062961       2.34678627       2.13100649       0.00000000
Si       0.49750312       2.24013564      -3.01826904       0.00000000
