10
Lattice="16.28999089631971 0.0 0.0 0.0 16.28999089631971 0.0 0.0 0.0 34.56954931742767" Properties=species:S:1:pos:R:3:initial_magmoms:R:1 pbc="T T T"
Si       1.34177865       1.36194174       1.35716670       0.00000000
Si       1.35521627      -1.36062225      -1.36017425       0.00000000
Si      -1.35900954       1.35778779      -1.35979398       0.00000000
Si      -1.36923966      -1.36360332       1.37013028       0.00000000
Si       2.67016625      -0.05080851       2.67883044       0.00000000
Si      -0.07307694       2.57489514       2.82737588       0.00000000
Si       2.71608776       2.71329498       0.00031113       0.00000000
Si       2.71328588      -0.00086337      -2.71682240       0.00000000
Si      -0.00178207       2.71383255      -2.71696068       0.00000000
Si      -2.71797021       2.71337643      -0.00034570       0.00000000
