10
Lattice="16.28999089631971 0.0 0.0 0.0 16.28999089631971 0.0 0.0 0.0 34.56954931742767" Properties=species:S:1:pos:R:3:initial_magmoms:R:1 pbc="T T T"
Si      -1.35435060       1.35671265      -1.35844577       0.00000000
Si       1.34920296       1.35058761       1.37130565       0.00000000
Si       1.36000323      -1.35974259      -1.35834206       0.00000000
Si      -1.35584928      -1.35005004       1.37320697       0.00000000
Si      -0.08148258       2.56834656       2.82913893       0.00000000
Si      -2.71332756      -0.00136836      -2.71568160       0.00000000
Si      -2.71477737      -2.71450044       0.00324954       0.00000000
Si       0.00153126       2.71340901      -2.71588902       0.00000000
Si      -2.71560816       2.71494027       0.00466689       0.00000000
Si       2.71545495      -2.71572219       0.00034570       0.00000000
