10
Lattice="16.28999089631971 0.0 0.0 0.0 16.28999089631971 0.0 0.0 0.0 34.56954931742767" Properties=species:S:1:pos:R:3:initial_magmoms:R:1 pbc="T T T"
Si       1.63185142       1.08631494       1.28432861       0.00000000
Si      -1.35226548       1.36068741      -1.40805310       0.00000000
Si       1.37147532      -1.35008262      -1.40487270       0.00000000
Si      -0.84294234      -1.64568096       1.51974738       0.00000000
Si       0.28457231       2.35037007       2.72719327       0.00000000
Si      -2.68172496      -2.60082882       0.05060985       0.00000000
Si       2.68714043       2.67348222      -0.09935294       0.00000000
Si      -2.78295102       2.57844636       0.04978018       0.00000000
Si       2.63962250      -2.78376552       0.07470484       0.00000000
Si       0.51625683      -0.84691710       3.73458507       0.00000000
