10
Lattice="16.28999089631971 0.0 0.0 0.0 16.28999089631971 0.0 0.0 0.0 34.56954931742767" Properties=species:S:1:pos:R:3:initial_magmoms:R:1 pbc="T T T"
Si       0.16646751      -0.43148952      -2.26081522       0.00000000
Si      -1.25620335       1.75723488       0.92822749       0.00000000
Si       2.19260142       0.88888014       0.27182052       0.00000000
Si      -0.60520608      -2.24660277       0.73916652       0.00000000
Si       0.00026064       1.83109374       2.93983069       0.00000000
Si       0.58764546      -2.29400667       2.79308287       0.00000000
Si      -2.04068088      -0.86211567      -2.95880938       0.00000000
Si       2.04903765       2.44789830       2.05733874       0.00000000
Si       1.35856971      -2.40412707      -2.61902509       0.00000000
Si       3.61859544      -0.94043799       0.86216504       0.00000000
