10
Lattice="16.28999089631971 0.0 0.0 0.0 16.28999089631971 0.0 0.0 0.0 34.56954931742767" Properties=species:S:1:pos:R:3:initial_magmoms:R:1 pbc="T T T"
Si      -2.09956923       0.60178518       0.85825868       0.00000000
Si       1.25942877      -0.61330221       1.89856071       0.00000000
Si      -0.54271764      -1.90814544      -1.37210075       0.00000000
Si       0.93138075       1.95535386      -1.07265915       0.00000000
Si      -3.29242077       0.64918908      -1.19565767       0.00000000
Si       3.45834161      -0.31631922       1.01001909       0.00000000
Si      -2.20255461      -0.90749961      -2.79629784       0.00000000
Si      -2.62014876      -0.95259033       2.59738454       0.00000000
Si       2.47660195       1.15852851      -2.69355708       0.00000000
Si       0.33055668       0.58860657       3.78353558       0.00000000
