10
Lattice="16.28999089631971 0.0 0.0 0.0 16.28999089631971 0.0 0.0 0.0 34.56954931742767" Properties=species:S:1:pos:R:3:initial_magmoms:R:1 pbc="T T T"
Si       1.83996106       0.92462040       1.35005716       0.00000000
Si      -1.83873375       1.67122368       0.20800509       0.00000000
Si      -1.10776887      -1.81563453       1.41480250       0.00000000
Si       0.58963351      -0.33449886      -2.50487637       0.00000000
Si      -3.12627906       0.46705059      -1.82617203       0.00000000
Si      -1.30634397       0.81230085      -3.34712934       0.00000000
Si       0.40782015       2.23453188       2.90451238       0.00000000
Si      -2.31831135      -0.49896270       2.95435478       0.00000000
Si      -0.85372632       3.58603173       1.35147797       0.00000000
Si      -2.97235485      -2.57877216      -0.07276894       0.00000000
