10
Lattice="16.28999089631971 0.0 0.0 0.0 16.28999089631971 0.0 0.0 0.0 34.56954931742767" Properties=species:S:1:pos:R:3:initial_magmoms:R:1 pbc="T T T"
Si       1.86458598       0.76313763       1.48757144       0.00000000
Si      -0.64479078      -1.85041368       1.62588429       0.00000000
Si      -1.88672409       1.81203444       0.35623530       0.00000000
Si       0.69134760      -0.33927183      -2.57871697       0.00000000
Si      -0.15392421       3.04582275      -1.75340309       0.00000000
Si      -2.08681416      -0.61678827       3.00636124       0.00000000
Si       0.65404350       2.07980946       3.02712373       0.00000000
Si      -2.06394300      -3.17868399       0.24288579       0.00000000
Si      -0.68901813       3.38967207       1.69954513       0.00000000
Si      -3.58713945       0.56050632       1.50740055       0.00000000
