10
Lattice="16.28999089631971 0.0 0.0 0.0 16.28999089631971 0.0 0.0 0.0 34.56954931742767" Properties=species:S:1:pos:R:3:initial_magmoms:R:1 pbc="T T T"
Si       1.41485559      -1.21295340      -1.47020918       0.00000000
Si       1.61383957       1.14727212       1.37324154       0.00000000
Si      -1.28570454       1.49494959      -1.44141273       0.00000000
Si      -1.29029832      -1.59345522       1.44511168       0.00000000
Si       2.74324319      -2.62570365      -0.14854544       0.00000000
Si       0.07307694      -2.57489514      -2.82737588       0.00000000
Si       0.57201913       1.68749739       3.39749721       0.00000000
Si      -2.72684826      -2.72073951       0.00058768       0.00000000
Si      -2.64489327       0.13848129      -2.82772158       0.00000000
Si       2.72872880       2.76592797       0.04093037       0.00000000
