10
Lattice="16.28999089631971 0.0 0.0 0.0 16.28999089631971 0.0 0.0 0.0 34.56954931742767" Properties=species:S:1:pos:R:3:initial_magmoms:R:1 pbc="T T T"
Si       0.60227388      -0.70765389      -2.10404223       0.00000000
Si      -0.73637316      -1.67712066       1.57381418       0.00000000
Si      -2.14907454       1.23916401      -0.45728625       0.00000000
Si       2.21618675       0.85235796       0.86289100       0.00000000
Si      -0.87993693      -0.11810250       3.35933240       0.00000000
Si      -1.58894289      -1.55406600      -2.71803233       0.00000000
Si       1.54388053       1.26135099      -2.90415489       0.00000000
Si      -1.61785764       2.07495504       2.70876769       0.00000000
Si       3.20594435      -0.91106712       2.01599353       0.00000000
Si       2.63206557      -1.97369640      -2.13200901       0.00000000
