10
Lattice="16.28999089631971 0.0 0.0 0.0 16.28999089631971 0.0 0.0 0.0 34.56954931742767" Properties=species:S:1:pos:R:3:initial_magmoms:R:1 pbc="T T T"
Si      -1.13816601       0.97700971       1.77583874       0.00000000
Si       1.71237222       1.62670052      -0.43481603       0.00000000
Si       0.73792071      -2.19305754       0.65056471       0.00000000
Si      -1.92538026      -0.71428392      -1.27596278       0.00000000
Si      -0.53121690      -0.83579103      -3.16605394       0.00000000
Si      -1.31085630      -2.80986210       1.53305666       0.00000000
Si      -1.96706637      -0.94275117       2.80749838       0.00000000
Si       0.32446422       2.32059914       2.92835359       0.00000000
Si       1.61785764      -2.07495504      -2.70876769       0.00000000
Si       1.45637487       3.34338308       1.12935324       0.00000000
