10
Lattice="16.28999089631971 0.0 0.0 0.0 16.28999089631971 0.0 0.0 0.0 34.56954931742767" Properties=species:S:1:pos:R:3:initial_magmoms:R:1 pbc="T T T"
Si       0.98500743       1.91480805       1.14347287       0.00000000
Si      -1.82263923      -0.86032377       1.41877109       0.00000000
Si       1.83873375      -1.67122368      -0.20800509       0.00000000
Si      -1.28754531      -1.20417309      -2.03417713       0.00000000
Si       0.37035315       1.52902827      -2.76525436       0.00000000
Si      -0.47957760      -2.17018638       2.74634969       0.00000000
Si       2.24655390       0.56330820       2.69650729       0.00000000
Si       0.53238978      -0.85892283      -3.55513444       0.00000000
Si       0.73096488      -3.48685821       1.20679741       0.00000000
Si      -3.02034519      -2.43796140       0.07546126       0.00000000
