10
Lattice="16.28999089631971 0.0 0.0 0.0 16.28999089631971 0.0 0.0 0.0 34.56954931742767" Properties=species:S:1:pos:R:3:initial_magmoms:R:1 pbc="T T T"
Si      -2.09510251       0.20448837       1.02740758       0.00000000
Si       1.05316479      -2.09067489       0.50091305       0.00000000
Si       0.04096935       0.02142135      -2.40161707       0.00000000
Si       0.87967629       1.96459029       1.10681388       0.00000000
Si       3.25392750      -1.35234693       0.34977490       0.00000000
Si      -1.60627545      -0.38367837       3.24884806       0.00000000
Si      -0.86125230       3.52494423       0.84851006       0.00000000
Si      -0.48526281      -2.24920917      -3.02231368       0.00000000
Si       2.27193372       0.36536841      -3.10624859       0.00000000
Si       0.79104240      -3.54872763      -1.40566780       0.00000000
