10
Lattice="16.28999089631971 0.0 0.0 0.0 16.28999089631971 0.0 0.0 0.0 34.56954931742767" Properties=species:S:1:pos:R:3:initial_magmoms:R:1 pbc="T T T"
Si       1.35771774      -1.35273789       1.35785809       0.00000000
Si       1.35667518       1.34997319      -1.36772770       0.00000000
Si      -1.35592606       1.36112086       1.35761610       0.00000000
Si      -1.33893604      -1.34532594      -1.39270767       0.00000000
Si      -0.00627817       2.58089053      -2.83595605       0.00000000
Si       2.71386024      -2.71231758      -0.00404464       0.00000000
Si       0.00016942      -2.71187775       2.71523220       0.00000000
Si      -2.71433332      -2.71311579      -0.00300755       0.00000000
Si      -2.71436590       0.00276930       2.71526677       0.00000000
Si       2.71500054       0.00276930       2.71543962       0.00000000
