10
Lattice="16.28999089631971 0.0 0.0 0.0 16.28999089631971 0.0 0.0 0.0 34.56954931742767" Properties=species:S:1:pos:R:3:initial_magmoms:R:1 pbc="T T T"
Si      -1.35722747      -1.35604476       1.35716670       0.00000000
Si      -1.35686909       1.35755973      -1.35744325       0.00000000
Si       1.35766623      -1.35708732      -1.35747782       0.00000000
Si       1.35801810       1.35812988       1.35785809       0.00000000
Si       0.00050539      -2.71471221      -2.71471366       0.00000000
Si      -2.71434737       0.00060273      -2.71512849       0.00000000
Si      -2.71512929      -2.71461447      -0.00010371       0.00000000
Si       2.71506795      -2.71469592       0.00013828       0.00000000
Si       2.71521456       0.00205254      -2.71485193       0.00000000
Si      -2.71517816       2.71521052       0.00024199       0.00000000
