10
Lattice="16.28999089631971 0.0 0.0 0.0 16.28999089631971 0.0 0.0 0.0 34.56954931742767" Properties=species:S:1:pos:R:3:initial_magmoms:R:1 pbc="T T T"
Si      -1.35771774       1.35273789      -1.35785809       0.00000000
Si       1.35728280       1.35550719       1.35758153       0.00000000
Si      -1.35754833      -1.35913986       1.35737411       0.00000000
Si       1.35614250      -1.35957969      -1.36190273       0.00000000
Si       2.71536381       2.71187566       0.00065682       0.00000000
Si      -2.71364380       2.71385875      -0.00024199       0.00000000
Si       0.00016290       2.71339069       2.71478279       0.00000000
Si      -0.00104256       2.70271108      -2.72558578       0.00000000
Si       2.70998811       0.01374876      -2.71854396       0.00000000
Si       2.71479366      -0.00174303       2.71516306       0.00000000
