10
Lattice="16.28999089631971 0.0 0.0 0.0 16.28999089631971 0.0 0.0 0.0 34.56954931742767" Properties=species:S:1:pos:R:3:initial_magmoms:R:1 pbc="T T T"
Si       1.35723393       1.35778397       1.35682100       0.00000000
Si       1.35711990      -1.35788350      -1.35720126       0.00000000
Si      -1.35735936      -1.35731335       1.35792723       0.00000000
Si      -1.35798653       1.35737184      -1.35740868       0.00000000
Si      -0.00016290      -2.71339069      -2.71478279       0.00000000
Si      -2.71380670       0.00046806      -2.71502478       0.00000000
Si       2.71179630       0.00226473       2.71747922       0.00000000
Si       2.71451673       2.71478659      -0.00003457       0.00000000
Si       2.71520091      -0.00151503      -2.71412597       0.00000000
Si       0.00161271       2.71455853       2.71488650       0.00000000
