10
Lattice="16.28999089631971 0.0 0.0 0.0 16.28999089631971 0.0 0.0 0.0 34.56954931742767" Properties=species:S:1:pos:R:3:initial_magmoms:R:1 pbc="T T T"
Si       0.98975759      -1.76342508       1.15310253       0.00000000
Si      -0.03714120       1.80387382       1.58511843       0.00000000
Si       2.21815391       0.38493270      -1.10228527       0.00000000
Si      -2.21618675      -0.85235796      -0.86289100       0.00000000
Si       1.72132520       2.68473765      -1.34479079       0.00000000
Si       1.44149558      -3.22740738      -0.70331787       0.00000000
Si      -1.61391287      -1.56001185      -2.96693323       0.00000000
Si      -2.12167217       2.84929760       1.41106065       0.00000000
Si      -0.67230622       0.40899303      -3.76704589       0.00000000
Si       1.91908580       3.17283818       1.03663765       0.00000000
