10
Lattice="10.86 0.0 0.0 0.0 10.86 0.0 0.0 0.0 10.86" Properties=species:S:1:pos:R:3:initial_magmoms:R:1 pbc="T T T"
Si      -1.13544558       1.56452418      -1.14619698       0.00000000
Si      -1.13544558      -1.15047582       1.56880302       0.00000000
Si       1.57955442      -1.15047582      -1.14619698       0.00000000
Si      -2.49294558       0.20702418      -2.50369698       0.00000000
Si      -2.49294558      -2.50797582       0.21130302       0.00000000
Si       0.22205442      -2.50797582      -2.50369698       0.00000000
Si       0.51263544       2.80725570      -2.38521438       0.00000000
Si       2.74477812       2.56300344       0.55023276       0.00000000
Si      -2.49294558       2.92202418       0.21130302       0.00000000
Si      -2.49294558       0.20702418       2.92630302       0.00000000
