10
Lattice="10.86 0.0 0.0 0.0 10.86 0.0 0.0 0.0 10.86" Properties=species:S:1:pos:R:3:initial_magmoms:R:1 pbc="T T T"
Si      -0.90719010      -1.72613184      -0.92544576       0.00000000
Si      -0.90719010       0.98886816       1.78955424       0.00000000
Si       1.80780990       0.98886816      -0.92544576       0.00000000
Si      -2.26469010      -0.36863184      -2.28294576       0.00000000
Si      -2.26469010       2.34636816       0.43205424       0.00000000
Si       0.45030990       2.34636816      -2.28294576       0.00000000
Si      -2.26469010      -3.08363184       0.43205424       0.00000000
Si       0.45030990      -3.08363184      -2.28294576       0.00000000
Si      -3.62219010       0.98886816      -0.92544576       0.00000000
Si      -0.90719010       0.98886816      -3.64044576       0.00000000
