10
Lattice="16.28999089631971 0.0 0.0 0.0 16.28999089631971 0.0 0.0 0.0 34.49183129400761" Properties=species:S:1:pos:R:3:initial_magmoms:R:1 pbc="T T T"
Si       1.33954299       1.35679154       1.38375786       0.00000000
Si      -1.37197964      -1.35773726       1.37975680       0.00000000
Si      -1.45618102       1.23718059      -1.41195495       0.00000000
Si       1.53534879      -1.28197247      -1.57707088       0.00000000
Si      -2.17704121      -0.66568919      -2.52271084       0.00000000
Si      -0.35023500      -2.25829733      -2.92332372       0.00000000
Si       0.00366525       2.21932587      -3.00913945       0.00000000
Si       2.69900865       2.70810732      -0.00848844       0.00000000
Si       2.70330921      -2.71332590      -0.01263092       0.00000000
Si       2.69524566       0.00322153       2.74211592       0.00000000
