10
Lattice="16.28999089631971 0.0 0.0 0.0 16.28999089631971 0.0 0.0 0.0 34.49183129400761" Properties=species:S:1:pos:R:3:initial_magmoms:R:1 pbc="T T T"
Si      -1.35338949       1.74551652       0.57449626       0.00000000
Si       0.72718560      -0.28426050      -2.20934100       0.00000000
Si       1.30295565      -0.06677271       1.96044780       0.00000000
Si      -1.51638723      -1.81310958      -0.02521354       0.00000000
Si       0.26515233      -3.34329444      -0.33839955       0.00000000
Si      -0.51948810      -0.31798080       3.46950076       0.00000000
Si      -2.44199643       0.81667539       2.42225919       0.00000000
Si       0.50665158      -2.61847089      -2.53401279       0.00000000
Si      -0.06126669       3.65706332       0.55086935       0.00000000
Si      -3.17299357       1.69765650      -0.89295952       0.00000000
