10
Lattice="16.28999089631971 0.0 0.0 0.0 16.28999089631971 0.0 0.0 0.0 34.49183129400761" Properties=species:S:1:pos:R:3:initial_magmoms:R:1 pbc="T T T"
Si       1.36912726      -1.32015317       1.35870298       0.00000000
Si      -1.34052595      -1.35912913      -1.36018613       0.00000000
Si       1.37381878       1.35800119      -1.35566769       0.00000000
Si      -1.40389405       1.31941018       1.44262165       0.00000000
Si       2.17794205       0.50114719       2.64531799       0.00000000
Si       0.25881715       2.42444233       2.82640020       0.00000000
Si      -0.19492451      -2.52091564       2.77480039       0.00000000
Si      -2.69287288      -2.71536937       0.01079595       0.00000000
Si      -2.69622862      -0.00173163      -2.71523297       0.00000000
Si      -2.69590282       2.71906327       0.01455556       0.00000000
