10
Lattice="16.28999089631971 0.0 0.0 0.0 16.28999089631971 0.0 0.0 0.0 34.49183129400761" Properties=species:S:1:pos:R:3:initial_magmoms:R:1 pbc="T T T"
Si       1.36184400       1.34826604       1.37410359       0.00000000
Si       1.45779210      -1.29387326      -1.32840879       0.00000000
Si      -1.35578412      -1.36782986       1.36510122       0.00000000
Si      -1.22292288       1.35238415      -1.53267987       0.00000000
Si      -2.26883862      -0.20544062      -3.02207044       0.00000000
Si       2.70120780       2.69483817       0.02666910       0.00000000
Si      -2.70853830       2.69786811      -0.02473066       0.00000000
Si      -2.70423774      -2.72356511      -0.02887313       0.00000000
Si       0.00366525       2.70524748       2.72580472       0.00000000
Si      -2.71230129      -0.00701768       2.72587370       0.00000000
