10
Lattice="16.28999089631971 0.0 0.0 0.0 16.28999089631971 0.0 0.0 0.0 34.49183129400761" Properties=species:S:1:pos:R:3:initial_magmoms:R:1 pbc="T T T"
Si      -1.35946566      -1.35131577       1.39224630       0.00000000
Si       1.35338949       1.36831113       1.39097010       0.00000000
Si      -1.46859237       1.19576745      -1.48502248       0.00000000
Si       1.48561542      -1.34548395      -1.50794922       0.00000000
Si       0.05444118       2.44431450      -2.85588871       0.00000000
Si       2.70853830      -2.69786811       0.02473066       0.00000000
Si      -2.69900865      -2.70810732       0.00848844       0.00000000
Si       2.69340489       2.73311991       0.01715280       0.00000000
Si      -2.71666701       2.71927341      -0.00198673       0.00000000
Si      -0.00376299      -2.70488579       2.75060436       0.00000000
