10
Lattice="16.28999089631971 0.0 0.0 0.0 16.28999089631971 0.0 0.0 0.0 34.49183129400761" Properties=species:S:1:pos:R:3:initial_magmoms:R:1 pbc="T T T"
Si      -1.33654563      -1.35482027       1.37632831       0.00000000
Si      -1.35469269       1.35818379      -1.35832357       0.00000000
Si       1.36014984      -1.35737780      -1.35728881       0.00000000
Si       1.36280511       1.35773582       1.38608951       0.00000000
Si      -2.71288773      -0.00007813      -2.71543992       0.00000000
Si      -2.71593396      -2.71397642       0.00275935       0.00000000
Si      -2.71298547       2.71695387       0.00082780       0.00000000
Si       2.71510317       2.71511310       0.00062085       0.00000000
Si       0.00268785       2.71483617      -2.71550890       0.00000000
Si       0.00267156      -2.71526333      -2.71550890       0.00000000
