10
Lattice="16.28999089631971 0.0 0.0 0.0 16.28999089631971 0.0 0.0 0.0 34.49183129400761" Properties=species:S:1:pos:R:3:initial_magmoms:R:1 pbc="T T T"
Si       2.39168151      -0.65888815      -0.55307682       0.00000000
Si      -0.48672891      -2.02511127       1.73838927       0.00000000
Si      -0.85401954       2.58229080      -0.45080849       0.00000000
Si      -1.94903334       0.77449176      -1.80123342       0.00000000
Si       0.98332956      -1.99000302      -1.87356283       0.00000000
Si       2.37148191      -0.35437266       1.78298723       0.00000000
Si      -2.76970725      -0.76500609       1.39374670       0.00000000
Si      -0.56710377      -0.67533127      -3.26837878       0.00000000
Si       0.05199768      -3.49012340      -0.22723231       0.00000000
Si      -0.62674146       3.06067923       2.00259684       0.00000000
