10
Lattice="16.28999089631971 0.0 0.0 0.0 16.28999089631971 0.0 0.0 0.0 34.49183129400761" Properties=species:S:1:pos:R:3:initial_magmoms:R:1 pbc="T T T"
Si      -1.81358199      -1.29349116      -0.91631050       0.00000000
Si      -1.37109672       1.28409183       1.60652692       0.00000000
Si       1.64946024      -1.20503646       1.39426408       0.00000000
Si       1.01069676       1.35171162      -2.22731125       0.00000000
Si      -2.28604086       2.05938180      -0.37251199       0.00000000
Si      -1.14761421       1.21091715      -3.02483182       0.00000000
Si       3.38778243       1.17377595       0.01179621       0.00000000
Si       2.02435830       2.94415686      -0.62840703       0.00000000
Si       1.30888521      -2.47650843      -2.42936451       0.00000000
Si      -3.57840801       0.32347053      -1.19103809       0.00000000
