10
Lattice="16.28999089631971 0.0 0.0 0.0 16.28999089631971 0.0 0.0 0.0 34.49183129400761" Properties=species:S:1:pos:R:3:initial_magmoms:R:1 pbc="T T T"
Si       1.36397799       1.34174214      -1.36335938       0.00000000
Si      -1.35487188      -1.36725228      -1.35994468       0.00000000
Si       1.33898913      -1.27664730       1.49246237       0.00000000
Si      -1.26166050       1.37152026       1.48290813       0.00000000
Si      -0.55074861      -2.22410628       2.64104100       0.00000000
Si      -2.46987351      -0.30081114       2.82212321       0.00000000
Si       0.50994216       2.20175640       3.01058669       0.00000000
Si       2.43400293       0.53115174       2.84288731       0.00000000
Si      -2.69683231       2.70280422       0.01362428       0.00000000
Si       0.00552231       2.70438435      -2.71809579       0.00000000
