10
Lattice="16.28999089631971 0.0 0.0 0.0 16.28999089631971 0.0 0.0 0.0 34.49183129400761" Properties=species:S:1:pos:R:3:initial_magmoms:R:1 pbc="T T T"
Si       1.35296595      -1.35242838      -1.35601261       0.00000000
Si      -1.36397799      -1.34174214       1.36335938       0.00000000
Si      -1.35845568       1.36264221      -1.35473641       0.00000000
Si       1.37559276       1.35332433       1.38157107       0.00000000
Si      -0.09606213       2.54796777       2.80439440       0.00000000
Si       2.70923877      -2.71083519       0.00320774       0.00000000
Si      -0.00317655      -2.71111212      -2.71292201       0.00000000
Si       2.71138905       0.00350235      -2.71278405       0.00000000
Si      -2.71884987      -2.70899442       0.00341469       0.00000000
Si       2.71063971       2.71847520       0.00375961       0.00000000
