10
Lattice="16.28999089631971 0.0 0.0 0.0 16.28999089631971 0.0 0.0 0.0 34.49183129400761" Properties=species:S:1:pos:R:3:initial_magmoms:R:1 pbc="T T T"
Si      -1.22997645      -0.04077387       1.94251204       0.00000000
Si      -0.60478254      -1.80271656      -1.30630986       0.00000000
Si      -0.09775629       1.80792936      -1.48401187       0.00000000
Si       2.28817485      -0.04404816       0.51434248       0.00000000
Si       1.73644884       0.92351268      -2.72499416       0.00000000
Si       0.95640219      -1.36492281      -3.02838448       0.00000000
Si       2.19607119       1.41315750       2.39908067       0.00000000
Si      -0.85226022      -2.22408999       2.64700809       0.00000000
Si      -0.10125864       1.68625935       3.13803407       0.00000000
Si      -2.93220000      -1.44725247      -1.80282005       0.00000000
