10
Lattice="16.28999089631971 0.0 0.0 0.0 16.28999089631971 0.0 0.0 0.0 34.49183129400761" Properties=species:S:1:pos:R:3:initial_magmoms:R:1 pbc="T T T"
Si      -0.43287417      -1.58858451       1.68365070       0.00000000
Si       1.88854857      -0.52470090      -1.33976695       0.00000000
Si       0.54898929       2.10960387       1.00609279       0.00000000
Si      -1.86667110      -0.32925348      -1.47400923       0.00000000
Si       2.16613017       1.60824654      -2.39776998       0.00000000
Si      -1.29510387       2.73005739       2.23414064       0.00000000
Si      -2.20307589       1.71369171      -2.57191933       0.00000000
Si       1.45792242      -1.53663570       3.17335373       0.00000000
Si      -1.17403659      -1.92262725      -3.09522969       0.00000000
Si       1.20809898      -2.15581860      -2.95253690       0.00000000
