10
Lattice="16.28999089631971 0.0 0.0 0.0 16.28999089631971 0.0 0.0 0.0 34.49183129400761" Properties=species:S:1:pos:R:3:initial_magmoms:R:1 pbc="T T T"
Si      -1.53645651       1.23212673       1.35673694       0.00000000
Si       0.41689368       1.52599833      -1.79978476       0.00000000
Si      -0.60333273      -2.08280682      -1.08007781       0.00000000
Si       1.66338819      -0.40928625       1.72721391       0.00000000
Si      -1.92568977      -0.20395080       3.22553990       0.00000000
Si       3.71778525      -0.06618627       0.73229648       0.00000000
Si      -3.59785827       1.45906272       0.17632234       0.00000000
Si      -1.51226586       1.56343275      -3.24733875       0.00000000
Si      -0.50557644      -3.89073618       0.40393406       0.00000000
Si       1.23087240      -2.96722350      -2.32106010       0.00000000
