10
Lattice="16.28999089631971 0.0 0.0 0.0 16.28999089631971 0.0 0.0 0.0 34.49183129400761" Properties=species:S:1:pos:R:3:initial_magmoms:R:1 pbc="T T T"
Si       1.34845362       1.35573525       1.39397434       0.00000000
Si      -1.36832742      -1.35830907       1.39445723       0.00000000
Si      -1.16796042       1.43135343      -1.56443997       0.00000000
Si       1.48313934      -1.33063236      -1.52648858       0.00000000
Si       2.70130554      -2.71129131       0.01768052       0.00000000
Si      -2.70330921       2.71332590       0.01263092       0.00000000
Si      -2.72065806      -2.69799867       0.02614137       0.00000000
Si       2.70423774       2.72356511       0.02887313       0.00000000
Si       2.70831024       0.00086337       2.75495378       0.00000000
Si      -0.00764001      -2.71432125       2.75457437       0.00000000
