10
Lattice="16.28999089631971 0.0 0.0 0.0 16.28999089631971 0.0 0.0 0.0 34.49183129400761" Properties=species:S:1:pos:R:3:initial_magmoms:R:1 pbc="T T T"
Si       1.78456950      -0.38744136      -1.49701530       0.00000000
Si      -0.27758160      -2.13294744       1.05800302       0.00000000
Si       0.95228082       1.65628575       1.47266405       0.00000000
Si      -2.12845140       0.47658024      -1.06476343       0.00000000
Si       1.25014347      -2.70088200      -1.73976894       0.00000000
Si       3.55047066      -0.48456234       0.06584494       0.00000000
Si      -2.16613017      -1.60824654       2.39776998       0.00000000
Si      -1.00116711       2.57561190       2.35572441       0.00000000
Si      -1.99472679       2.80241757      -1.44451870       0.00000000
Si      -1.61714088       0.50135733       3.40386277       0.00000000
