10
Lattice="16.28999089631971 0.0 0.0 0.0 16.28999089631971 0.0 0.0 0.0 34.49183129400761" Properties=species:S:1:pos:R:3:initial_magmoms:R:1 pbc="T T T"
Si      -2.00707461       0.77113602      -0.84308430       0.00000000
Si      -0.13372461      -2.32583733       0.37975527       0.00000000
Si      -0.27096786       0.89239878       2.17498711       0.00000000
Si       1.69178166       1.24192057      -1.28389015       0.00000000
Si      -0.59119668       2.50202575      -1.62853272       0.00000000
Si      -2.71502172      -1.16673867      -2.07875485       0.00000000
Si       1.99472679      -2.80241757       1.44451870       0.00000000
Si      -2.37447927      -2.69697240       1.27036935       0.00000000
Si      -2.54018115       0.74951919       2.78928697       0.00000000
Si      -3.41425368       1.71872110       0.84639552       0.00000000
