10
Lattice="16.28999089631971 0.0 0.0 0.0 16.28999089631971 0.0 0.0 0.0 34.49183129400761" Properties=species:S:1:pos:R:3:initial_magmoms:R:1 pbc="T T T"
Si       1.81882737      -1.44267498      -0.15345424       0.00000000
Si      -1.30295565       0.06677271      -1.96044780       0.00000000
Si      -1.82244375      -0.25120809       1.50905295       0.00000000
Si       1.30065876       1.85226815       0.75623382       0.00000000
Si      -2.65634514       1.81228923      -1.38595154       0.00000000
Si       0.91947276       3.52490255      -0.87640343       0.00000000
Si       1.02359844      -3.50345772      -1.11843275       0.00000000
Si      -0.54024156       1.07191199       3.64975517       0.00000000
Si       3.56707017      -0.38582865      -1.40819878       0.00000000
Si      -2.81934288      -1.74633687      -1.98566135       0.00000000
