10
Lattice="16.28999089631971 0.0 0.0 0.0 16.28999089631971 0.0 0.0 0.0 34.49183129400761" Properties=species:S:1:pos:R:3:initial_magmoms:R:1 pbc="T T T"
Si       0.87027696      -1.51418808       1.52364301       0.00000000
Si      -0.78465672      -1.21707477      -1.82630900       0.00000000
Si       1.59663177       1.25985231      -1.36446312       0.00000000
Si      -1.95523983       1.21547835       1.28485593       0.00000000
Si       1.77139089       0.12704571       2.97851758       0.00000000
Si       2.61130329      -2.36275047      -0.49368186       0.00000000
Si       3.22590870       1.30660461       1.54319989       0.00000000
Si       0.33948360       2.80250132      -2.60958443       0.00000000
Si      -2.78374923      -2.45736279      -1.08949408       0.00000000
Si       1.02623742      -2.35836846      -2.90997396       0.00000000
