10
Lattice="16.28999089631971 0.0 0.0 0.0 16.28999089631971 0.0 0.0 0.0 34.49183129400761" Properties=species:S:1:pos:R:3:initial_magmoms:R:1 pbc="T T T"
Si       1.79659152       1.01763630      -1.04737022       0.00000000
Si       1.43892828      -1.26226323       1.35048012       0.00000000
Si      -1.27741293       1.47388662       1.31623316       0.00000000
Si      -0.89581968      -1.30404708      -1.76907119       0.00000000
Si       0.84250251       1.07476533      -3.15153905       0.00000000
Si      -2.48520240      -2.60471724      -0.20886885       0.00000000
Si       0.09956448      -2.60883535       2.69791461       0.00000000
Si      -2.61742833       0.10907784       2.69005047       0.00000000
Si       3.57195717      -0.70073064      -1.06336133       0.00000000
Si       2.79666720      -2.64744428       0.05514212       0.00000000
