10
Lattice="16.28999089631971 0.0 0.0 0.0 16.28999089631971 0.0 0.0 0.0 34.49183129400761" Properties=species:S:1:pos:R:3:initial_magmoms:R:1 pbc="T T T"
Si      -1.40835195      -1.33111487      -1.32048601       0.00000000
Si       1.27361736       1.47820999      -1.31986515       0.00000000
Si      -0.02019960       0.30451549       2.33606406       0.00000000
Si      -2.39168151       0.65888815       0.55307682       0.00000000
Si       2.33748468      -0.89773375       2.54177345       0.00000000
Si       2.46770694      -0.01050705      -2.73420349       0.00000000
Si      -2.33968383      -2.83123525       0.32584451       0.00000000
Si      -0.24115716       2.68805200      -2.72799495       0.00000000
Si      -0.24246036      -2.73748630      -2.76317664       0.00000000
Si       2.38449762       3.10418005       0.03304319       0.00000000
