10
Lattice="16.28999089631971 0.0 0.0 0.0 16.28999089631971 0.0 0.0 0.0 34.49183129400761" Properties=species:S:1:pos:R:3:initial_magmoms:R:1 pbc="T T T"
Si      -1.36060596      -1.48794556      -1.18006968       0.00000000
Si       1.71703116       0.93133840      -1.37284464       0.00000000
Si       0.11010411      -0.17811160       2.39652827       0.00000000
Si      -0.83219094       2.25644845      -0.24927260       0.00000000
Si      -2.19577797       0.31599016       2.50593642       0.00000000
Si       1.48673943       3.15422293      -0.34188322       0.00000000
Si      -1.39027005      -0.42883262      -3.25258151       0.00000000
Si       0.54239184       0.89569588      -3.48519455       0.00000000
Si      -2.41285851       2.40467116       1.46386863       0.00000000
Si       2.10730698       0.89445784       3.01662276       0.00000000
