10
Lattice="16.28999089631971 0.0 0.0 0.0 16.28999089631971 0.0 0.0 0.0 34.49183129400761" Properties=species:S:1:pos:R:3:initial_magmoms:R:1 pbc="T T T"
Si      -1.35744570       1.35563751       1.35873747       0.00000000
Si       1.35860229       1.35586557      -1.35797865       0.00000000
Si      -1.35669636      -1.35933534      -1.35780619       0.00000000
Si       1.35630540      -1.35870003       1.35901340       0.00000000
Si      -0.00190593       2.69666289       2.72630485       0.00000000
Si      -2.71160082       2.71365336      -0.00241443       0.00000000
Si       0.00133578       2.71357191      -2.71557789       0.00000000
Si      -2.69249265      -0.00951336       2.73654893       0.00000000
Si      -2.71435383      -0.00162900      -2.71540543       0.00000000
Si      -2.71511946      -2.71526607      -0.00103476       0.00000000
