10
Lattice="16.28999089631971 0.0 0.0 0.0 16.28999089631971 0.0 0.0 0.0 34.49183129400761" Properties=species:S:1:pos:R:3:initial_magmoms:R:1 pbc="T T T"
Si       1.17726201      -1.35420399      -1.53123121       0.00000000
Si      -1.82728188      -0.80107704       1.29903208       0.00000000
Si      -1.52171406       1.36283769      -1.52564353       0.00000000
Si       2.02610133       0.81293616       1.49377306       0.00000000
Si       2.69203653      -2.56404600      -0.12310141       0.00000000
Si       2.54065356       2.72101644      -0.04414957       0.00000000
Si       2.52708399       0.01365102      -2.90317906       0.00000000
Si      -2.92229568      -2.60887608      -0.05139286       0.00000000
Si      -0.97326234      -3.38336784       1.74984056       0.00000000
Si      -2.99336895       2.55748113      -0.10282021       0.00000000
