10
Lattice="16.28999089631971 0.0 0.0 0.0 16.28999089631971 0.0 0.0 0.0 34.49183129400761" Properties=species:S:1:pos:R:3:initial_magmoms:R:1 pbc="T T T"
Si      -0.57541167      -2.07787095       0.97294612       0.00000000
Si      -1.41379281       0.54496566      -1.89232640       0.00000000
Si       2.33499231      -0.38291274      -0.60105499       0.00000000
Si      -0.95886198       1.97151354       1.12101964       0.00000000
Si       1.23564537       2.78342343       1.69130789       0.00000000
Si       2.80438866       1.76609664      -1.65264253       0.00000000
Si       0.20243583      -2.14995420       3.18639165       0.00000000
Si       0.41262570      -3.83090464      -0.32932819       0.00000000
Si      -2.26518966       1.10012886       2.93553242       0.00000000
Si       1.58443056      -2.87008623      -2.11193601       0.00000000
