10
Lattice="16.28999089631971 0.0 0.0 0.0 16.28999089631971 0.0 0.0 0.0 34.49183129400761" Properties=species:S:1:pos:R:3:initial_magmoms:R:1 pbc="T T T"
Si       1.59257556       1.59541002       0.71256714       0.00000000
Si      -1.92837762       0.50876928      -1.31986515       0.00000000
Si      -1.37665161      -0.45879156       1.91947148       0.00000000
Si       1.52036199      -1.43830926      -1.20900835       0.00000000
Si      -2.70842427      -1.77966621      -1.62325547       0.00000000
Si       3.34000386      -0.11787444      -1.79888797       0.00000000
Si       3.10438530       2.05859988      -1.00954197       0.00000000
Si       0.55853523       3.40980651       1.73349143       0.00000000
Si       0.50037993      -2.00958327      -3.28817710       0.00000000
Si      -3.66482646      -0.41474340       1.40512901       0.00000000
