10
Lattice="16.28999089631971 0.0 0.0 0.0 16.28999089631971 0.0 0.0 0.0 34.49183129400761" Properties=species:S:1:pos:R:3:initial_magmoms:R:1 pbc="T T T"
Si       0.51777765      -0.56482317       2.27366830       0.00000000
Si      -2.33937432      -0.04500927      -0.61392045       0.00000000
Si       0.78653007       2.15995626       0.76630544       0.00000000
Si       1.56768444      -1.10708469      -1.49518723       0.00000000
Si       1.87799265       1.33700175       2.80794706       0.00000000
Si      -1.16893782       2.93925357       1.84728004       0.00000000
Si       1.68148638      -3.33738117      -0.53469267       0.00000000
Si      -1.46688192      -0.27515439       3.49402446       0.00000000
Si      -2.86184349       1.94202864      -1.67526918       0.00000000
Si      -2.83867911      -1.82716785      -2.08744680       0.00000000
