10
Lattice="16.28999089631971 0.0 0.0 0.0 16.28999089631971 0.0 0.0 0.0 34.49183129400761" Properties=species:S:1:pos:R:3:initial_magmoms:R:1 pbc="T T T"
Si       0.87011406       1.67751162      -1.32469401       0.00000000
Si      -1.79611911      -0.97518456      -1.20476585       0.00000000
Si       1.70779473      -1.67725098       0.13244871       0.00000000
Si      -0.51124536       1.56677220       1.78402199       0.00000000
Si       2.28362994       0.37958958      -2.59927137       0.00000000
Si      -0.44597133      -2.34108477      -2.56947041       0.00000000
Si       2.51827110       2.72593602       0.02431675       0.00000000
Si      -0.98732061       0.03963357       3.68604059       0.00000000
Si       1.75896162       2.53550592       2.33189054       0.00000000
Si       3.58867071      -0.93533922      -1.13543723       0.00000000
