10
Lattice="16.28999089631971 0.0 0.0 0.0 16.28999089631971 0.0 0.0 0.0 34.49183129400761" Properties=species:S:1:pos:R:3:initial_magmoms:R:1 pbc="T T T"
Si      -1.11500163       1.76282235       0.99133028       0.00000000
Si      -1.56053313      -1.72028916       0.01900501       0.00000000
Si       2.30185845       0.06656094       0.53241621       0.00000000
Si       0.39415284       0.80917317      -2.19361271       0.00000000
Si       1.64527371      -1.05337656      -2.97088657       0.00000000
Si       0.62423280       2.87950185       2.08096233       0.00000000
Si       3.28636089      -1.17499770      -1.26188435       0.00000000
Si      -3.43389942      -0.83921193      -1.20145463       0.00000000
Si      -2.20403700       2.95002126      -0.78679360       0.00000000
Si       2.72121192       2.36923389       1.10660204       0.00000000
