10
Lattice="16.28999089631971 0.0 0.0 0.0 16.28999089631971 0.0 0.0 0.0 34.49183129400761" Properties=species:S:1:pos:R:3:initial_magmoms:R:1 pbc="T T T"
Si      -1.03404033       1.81439649       1.02092429       0.00000000
Si       1.51180974       0.46318986      -1.72210912       0.00000000
Si      -1.59257556      -1.59541002      -0.71256714       0.00000000
Si       1.42122105      -0.31842063       1.93540672       0.00000000
Si       0.91932615       1.97074791       2.34751535       0.00000000
Si       1.74742830      -1.71328446      -2.51145512       0.00000000
Si      -0.07221357      -3.03371928      -1.92157549       0.00000000
Si      -2.96922717      -2.05420158       1.20690434       0.00000000
Si      -3.08843739       1.47129651       2.01584171       0.00000000
Si       3.51539829       1.59723450      -1.16679032       0.00000000
