10
Lattice="16.28999089631971 0.0 0.0 0.0 16.28999089631971 0.0 0.0 0.0 34.49183129400761" Properties=species:S:1:pos:R:3:initial_magmoms:R:1 pbc="T T T"
Si       2.05439706       0.34309998      -0.99491743       0.00000000
Si       0.02710656      -2.06829243       1.07580082       0.00000000
Si       0.12202839       1.73615562       1.61880602       0.00000000
Si      -1.66338819       0.40928625      -1.72721391       0.00000000
Si      -2.27022327      -1.79519058       1.81475423       0.00000000
Si       1.07303859       3.34642212       0.11827256       0.00000000
Si      -3.19984470       1.64141298      -0.37047697       0.00000000
Si       0.11921022      -3.52549809      -0.80893737       0.00000000
Si       2.31570495       2.51916705      -1.74118311       0.00000000
Si      -3.58907796       0.20533545       1.49832599       0.00000000
