10
Lattice="16.28999089631971 0.0 0.0 0.0 16.28999089631971 0.0 0.0 0.0 34.49183129400761" Properties=species:S:1:pos:R:3:initial_magmoms:R:1 pbc="T T T"
Si       1.29432032      -1.37003787       1.53691547       0.00000000
Si       1.08962018       1.84469589      -1.25045172       0.00000000
Si      -1.41873750       1.33635015       1.54226861       0.00000000
Si      -1.18407775      -1.54499247      -1.66373308       0.00000000
Si      -2.63129994       2.64598470      -0.05735650       0.00000000
Si      -2.72338731      -2.59512732       0.08594679       0.00000000
Si       2.54239496      -2.89354383       0.05387972       0.00000000
Si      -0.72094001       3.58893135      -1.36762054       0.00000000
Si       2.69390825       2.84214888       0.11599609       0.00000000
Si       2.65103297      -0.00728163       2.92687151       0.00000000
