10
Lattice="16.28999089631971 0.0 0.0 0.0 16.28999089631971 0.0 0.0 0.0 34.49183129400761" Properties=species:S:1:pos:R:3:initial_magmoms:R:1 pbc="T T T"
Si      -0.89692740       1.72708209       1.46221302       0.00000000
Si       1.60449984      -1.22714199       1.36097944       0.00000000
Si      -1.51153281      -1.94227299      -0.57466872       0.00000000
Si       1.24670628       0.10274103      -2.45851012       0.00000000
Si       0.65761101      -2.14804827      -2.15273987       0.00000000
Si      -2.52620433       1.68032979      -1.44544998       0.00000000
Si      -0.76297473       1.06116318      -3.21795169       0.00000000
Si       0.18875223      -2.33857611       2.84241964       0.00000000
Si      -1.54714275       3.38264523      -0.03942419       0.00000000
Si       1.97293077      -3.11717295      -0.48685247       0.00000000
