10
Lattice="16.28999089631971 0.0 0.0 0.0 16.28999089631971 0.0 0.0 0.0 34.49183129400761" Properties=species:S:1:pos:R:3:initial_magmoms:R:1 pbc="T T T"
Si      -0.87027696       1.51418808      -1.52364301       0.00000000
Si       0.90111393       1.64123379       1.45487457       0.00000000
Si      -1.77777657      -1.11909042       1.22792165       0.00000000
Si       1.74102633      -0.84856239      -2.01732486       0.00000000
Si       2.09668590      -2.40148809      -0.14065777       0.00000000
Si       2.17315116       0.20890296       2.79122338       0.00000000
Si       2.35563174       2.82079269       0.01955688       0.00000000
Si       3.25255914       1.09371060      -1.44265614       0.00000000
Si      -1.65493368       0.29711331      -3.34995200       0.00000000
Si      -0.55961037      -2.49974937       2.77209075       0.00000000
