10
Lattice="16.28999089631971 0.0 0.0 0.0 16.28999089631971 0.0 0.0 0.0 34.49183129400761" Properties=species:S:1:pos:R:3:initial_magmoms:R:1 pbc="T T T"
Si      -1.35679410      -1.35759284       1.35701288       0.00000000
Si       1.35731538      -1.35790235      -1.35746127       0.00000000
Si      -1.35824391       1.35754521      -1.35728881       0.00000000
Si       1.35928647       1.35762503       1.35704737       0.00000000
Si       2.71498914       0.00022753       2.71209421       0.00000000
Si       0.00017919      -2.71479419      -2.71343939       0.00000000
Si      -0.00070047       2.71470257      -2.71471559       0.00000000
Si       2.71494862      -2.71468016       0.00017246       0.00000000
Si       2.71500533       2.71473515       0.00024144       0.00000000
Si      -2.71505430      -0.00008198       2.71475008       0.00000000
