10
Lattice="16.28999089631971 0.0 0.0 0.0 16.28999089631971 0.0 0.0 0.0 34.49183129400761" Properties=species:S:1:pos:R:3:initial_magmoms:R:1 pbc="T T T"
Si      -1.35496962      -1.33265232       1.36128987       0.00000000
Si      -1.35368271       1.35873261      -1.35887544       0.00000000
Si       1.36096434      -1.35741312      -1.35849603       0.00000000
Si       1.36399428       1.36176255       1.37850130       0.00000000
Si       0.07838748      -2.56029930       2.71713002       0.00000000
Si      -2.70687672       2.71158453      -0.00117272       0.00000000
Si      -2.71176372      -0.00057015      -2.71526746       0.00000000
Si      -2.71406061      -2.71513575       0.00172459       0.00000000
Si       0.00296478       2.71456560      -2.71537094       0.00000000
Si       0.00304623      -2.71585251      -2.71547441       0.00000000
