10
Lattice="16.28999089631971 0.0 0.0 0.0 16.28999089631971 0.0 0.0 0.0 34.49183129400761" Properties=species:S:1:pos:R:3:initial_magmoms:R:1 pbc="T T T"
Si       0.77483385      -1.38955329       1.78495327       0.00000000
Si      -0.57899547       2.04247278       1.16299622       0.00000000
Si      -1.81781739       0.01420488      -1.67733869       0.00000000
Si       2.48608061       0.90191214      -0.20363989       0.00000000
Si       1.14995997       2.34101961      -1.66267966       0.00000000
Si      -0.30120210       1.12076829      -3.09491926       0.00000000
Si       0.66424104      -2.84954780      -1.58772887       0.00000000
Si       2.97143351      -1.72338426       0.78641419       0.00000000
Si       0.79547328       1.78976601       3.09416044       0.00000000
Si      -3.00255651       1.85072319       1.08497565       0.00000000
