10
Lattice="16.28999089631971 0.0 0.0 0.0 16.28999089631971 0.0 0.0 0.0 34.49183129400761" Properties=species:S:1:pos:R:3:initial_magmoms:R:1 pbc="T T T"
Si       0.56606121       2.11343202      -0.75002529       0.00000000
Si       1.39839876      -0.62190333       1.81699620       0.00000000
Si       0.54542178      -1.06588728      -2.05923246       0.00000000
Si      -2.38125591      -0.08024454       0.45539590       0.00000000
Si      -2.35105425      -2.16191106       1.67354459       0.00000000
Si      -0.17997192      -3.25493422      -1.60318121       0.00000000
Si      -0.66398040      -3.52292590       0.70780727       0.00000000
Si      -0.80840754       2.36613879      -2.68118951       0.00000000
Si       0.20693187       3.52004094       1.09283979       0.00000000
Si       0.75064320      -2.81922233       2.48130924       0.00000000
