10
Lattice="16.28999089631971 0.0 0.0 0.0 16.28999089631971 0.0 0.0 0.0 34.49183129400761" Properties=species:S:1:pos:R:3:initial_magmoms:R:1 pbc="T T T"
Si       2.26103571       0.76157379       0.12689552       0.00000000
Si       0.11380194      -2.23029648       0.96049456       0.00000000
Si      -1.56768444       1.10708469       1.49518723       0.00000000
Si      -0.50676561       0.02946861      -2.39801142       0.00000000
Si       3.06592512      -0.47711781      -1.73714756       0.00000000
Si      -2.82569598      -0.86830587      -2.30540080       0.00000000
Si      -1.88340093      -3.30286592       0.34040007       0.00000000
Si       1.76261058       0.48488814      -3.41020927       0.00000000
Si       3.21264768       0.28220796       2.24452268       0.00000000
Si      -1.04990679       0.54226152       3.76885553       0.00000000
