10
Lattice="16.28999089631971 0.0 0.0 0.0 16.28999089631971 0.0 0.0 0.0 34.49183129400761" Properties=species:S:1:pos:R:3:initial_magmoms:R:1 pbc="T T T"
Si      -0.97547778      -1.80208125       1.09170156       0.00000000
Si       1.79282853       0.51996051       1.46855952       0.00000000
Si      -1.48848246       1.85694597       0.23668308       0.00000000
Si       0.75347766      -1.50353442      -1.73397431       0.00000000
Si       2.54333231      -1.63988172       1.87408021       0.00000000
Si       2.08959830      -2.94264189      -0.27493454       0.00000000
Si       0.39899097      -2.05478802       3.02286578       0.00000000
Si      -2.69457777       1.84057452      -1.81240878       0.00000000
Si       2.06690145      -0.08405640      -3.11640768       0.00000000
Si       3.26750100       1.85207526       0.28759305       0.00000000
