10
Lattice="16.28999089631971 0.0 0.0 0.0 16.28999089631971 0.0 0.0 0.0 34.49183129400761" Properties=species:S:1:pos:R:3:initial_magmoms:R:1 pbc="T T T"
Si      -1.33581258      -1.36083402       1.37781836       0.00000000
Si       1.38255252       1.35236322       1.37492105       0.00000000
Si       1.35848730      -1.33791399      -1.43562670       0.00000000
Si      -1.41740919       1.25665947      -1.55021553       0.00000000
Si       0.57749094       2.04441129      -2.52754660       0.00000000
Si      -2.66833458       2.69511634       0.01567655       0.00000000
Si       2.40429716       0.45180315      -2.92815948       0.00000000
Si      -2.68003080      -2.73207735      -0.00696735       0.00000000
Si      -2.69408907      -0.00255753       2.73862534       0.00000000
Si       2.73718331      -2.70122409       0.00867470       0.00000000
