10
Lattice="16.28999089631971 0.0 0.0 0.0 16.28999089631971 0.0 0.0 0.0 34.49183129400761" Properties=species:S:1:pos:R:3:initial_magmoms:R:1 pbc="T T T"
Si       1.35234693       1.35624024      -1.37098208       0.00000000
Si      -1.36418976      -1.35892809      -1.36794679       0.00000000
Si       1.27992159      -1.39106826       1.46379965       0.00000000
Si      -1.38554595       1.37267605       1.39257397       0.00000000
Si      -0.68038443      -2.16130833       2.66894491       0.00000000
Si      -2.47402746      -0.38110455       2.59523582       0.00000000
Si       2.49794837       0.19445373       2.76400445       0.00000000
Si       2.69287288       2.71536937      -0.01079595       0.00000000
Si       2.70153590      -2.71570590       0.00344919       0.00000000
Si       2.70952452       0.00097740      -2.72668426       0.00000000
