10
Lattice="16.28999089631971 0.0 0.0 0.0 16.28999089631971 0.0 0.0 0.0 34.49183129400761" Properties=species:S:1:pos:R:3:initial_magmoms:R:1 pbc="T T T"
Si       0.74231901      -2.21482098       0.04049343       0.00000000
Si       2.06370747       1.15463520      -0.06684521       0.00000000
Si      -1.54250010       0.20610108      -1.78923026       0.00000000
Si      -1.26700362      -0.04877226       2.01349627       0.00000000
Si       1.74233395      -2.12892381       2.18298922       0.00000000
Si      -1.26126954      -3.34886562      -0.51482536       0.00000000
Si      -0.04352688       1.34348517       3.41945308       0.00000000
Si       3.34097216      -0.20080683      -1.52143553       0.00000000
Si      -1.96185357      -2.09657187      -2.36341609       0.00000000
Si      -3.63947922       0.71636904      -0.81486997       0.00000000
