10
Lattice="16.28999089631971 0.0 0.0 0.0 16.28999089631971 0.0 0.0 0.0 34.49183129400761" Properties=species:S:1:pos:R:3:initial_magmoms:R:1 pbc="T T T"
Si       0.62112955       2.17948797      -0.66979725       0.00000000
Si       1.81612486      -1.38663738      -0.69221695       0.00000000
Si      -2.28477580       0.08544105      -0.80800609       0.00000000
Si      -0.99380959      -0.64006668       2.12290442       0.00000000
Si      -3.10452118       0.02257794       1.41558004       0.00000000
Si       0.61297641       3.07985256       1.48056269       0.00000000
Si      -1.92564646      -1.32116787      -2.65087118       0.00000000
Si      -0.99107287       2.67789681      -2.36907276       0.00000000
Si       3.63433321      -0.71851932       0.73095130       0.00000000
Si      -1.62903814      -2.88256437       1.90381218       0.00000000
