10
Lattice="16.28999089631971 0.0 0.0 0.0 16.28999089631971 0.0 0.0 0.0 34.49183129400761" Properties=species:S:1:pos:R:3:initial_magmoms:R:1 pbc="T T T"
Si      -1.35694560      -1.35694071       1.35732330       0.00000000
Si       1.35778779       1.35788553       1.35708186       0.00000000
Si      -1.35695700       1.35738054      -1.36094495       0.00000000
Si       1.35855342      -1.35645201      -1.36294548       0.00000000
Si      -2.71436511       0.00092853       2.71412923       0.00000000
Si       0.00074934      -2.71441899       2.71468110       0.00000000
Si      -2.71612211      -2.71352304      -0.00027593       0.00000000
Si       0.00016290       2.71526607       2.71447415       0.00000000
Si       2.71567332       0.00060273       2.71450864       0.00000000
Si       2.71590138      -2.71438641      -0.00055187       0.00000000
