10
Lattice="16.28999089631971 0.0 0.0 0.0 16.28999089631971 0.0 0.0 0.0 34.49183129400761" Properties=species:S:1:pos:R:3:initial_magmoms:R:1 pbc="T T T"
Si       1.24775584      -1.43764137      -1.39226355       0.00000000
Si      -1.31342379      -1.41947802       1.38243337       0.00000000
Si      -1.47897906       1.28233251      -1.38843495       0.00000000
Si       1.62715646       1.24467003       1.26547151       0.00000000
Si      -2.06690145       0.08405640       3.11640768       0.00000000
Si       2.58888548      -0.08068437      -2.76600497       0.00000000
Si      -2.76458586      -2.63972934      -0.04980623       0.00000000
Si      -0.12788646       2.63741616      -2.76714320       0.00000000
Si       2.68292765      -2.76892533       0.07702030       0.00000000
Si       2.73362213       2.77285122      -0.06298212       0.00000000
