10
Lattice="16.28999089631971 0.0 0.0 0.0 16.28999089631971 0.0 0.0 0.0 34.49183129400761" Properties=species:S:1:pos:R:3:initial_magmoms:R:1 pbc="T T T"
Si      -0.42655691       0.69146163       2.13852923       0.00000000
Si       1.10646567       1.52818119      -1.32845362       0.00000000
Si      -1.62715646      -1.24467003      -1.26547151       0.00000000
Si       1.74724911      -0.25379820       2.02946600       0.00000000
Si       2.32990983       0.02417436      -2.66553021       0.00000000
Si       2.24902998       3.03411024       0.15048794       0.00000000
Si      -0.37940062      -2.68231140      -2.65773505       0.00000000
Si      -0.40259595       2.74854654      -2.66139119       0.00000000
Si      -1.90122938      -0.64065312       3.31949570       0.00000000
Si      -2.94058025      -2.66414805       0.11696187       0.00000000
