10
Lattice="16.28999089631971 0.0 0.0 0.0 16.28999089631971 0.0 0.0 0.0 34.49183129400761" Properties=species:S:1:pos:R:3:initial_magmoms:R:1 pbc="T T T"
Si       1.60428807       0.99745299       1.36644782       0.00000000
Si       1.29295359      -0.47793231      -1.97721084       0.00000000
Si      -1.08962018      -1.84469589       1.25045172       0.00000000
Si      -1.81056020       1.74423546      -0.11716882       0.00000000
Si       0.20500965       2.23655184       2.81135283       0.00000000
Si      -2.50835768      -0.50834574       2.79272033       0.00000000
Si       2.95987671       2.36156130      -0.36792457       0.00000000
Si      -0.19694610      -0.26016759      -3.88226473       0.00000000
Si       2.06086419      -2.71440270      -2.04557369       0.00000000
Si      -3.72092012       0.80128881       1.19309523       0.00000000
