10
Lattice="16.28999089631971 0.0 0.0 0.0 16.28999089631971 0.0 0.0 0.0 34.49183129400761" Properties=species:S:1:pos:R:3:initial_magmoms:R:1 pbc="T T T"
Si       0.70905483      -1.32644583      -1.75984320       0.00000000
Si       0.57712212       2.01406302      -1.02830554       0.00000000
Si      -2.34125486       0.29124891      -0.00293181       0.00000000
Si       1.48989969      -0.21776472       1.90505389       0.00000000
Si      -2.65469075      -2.03001093       1.09584058       0.00000000
Si       3.01852071      -1.11938364      -1.52012484       0.00000000
Si      -2.33641410       2.33280945       1.47690655       0.00000000
Si       0.15227892      -3.54639816      -1.09139114       0.00000000
Si       2.25781029      -2.45423511       1.83669104       0.00000000
Si      -0.86094768       3.73084983      -0.10923569       0.00000000
