10
Lattice="16.28999089631971 0.0 0.0 0.0 16.28999089631971 0.0 0.0 0.0 34.49183129400761" Properties=species:S:1:pos:R:3:initial_magmoms:R:1 pbc="T T T"
Si      -1.35717759       1.35526284       1.35570219       0.00000000
Si       1.35726488       1.35536116      -1.35604711       0.00000000
Si      -1.35721810      -1.35964485      -1.35621956       0.00000000
Si       1.35421865      -1.35853713       1.36215216       0.00000000
Si      -2.71288026       2.71266034       0.00065535       0.00000000
Si       0.00060599       2.71267989      -2.71385329       0.00000000
Si      -2.71485135      -0.00286704      -2.71385329       0.00000000
Si       2.71498751      -0.00236205      -2.71385329       0.00000000
Si       2.71545992       2.71362308       0.00106925       0.00000000
Si      -0.01665164       2.71439197       2.71588831       0.00000000
