10
Lattice="16.28999089631971 0.0 0.0 0.0 16.28999089631971 0.0 0.0 0.0 34.49183129400761" Properties=species:S:1:pos:R:3:initial_magmoms:R:1 pbc="T T T"
Si       2.00707461      -0.77113602       0.84308430       0.00000000
Si       1.41587793       1.73088973      -0.78544842       0.00000000
Si      -1.40717907       0.94758508       1.68947982       0.00000000
Si      -0.70794711      -1.93787469      -1.23567055       0.00000000
Si      -2.02605246      -0.69913422      -2.70236751       0.00000000
Si       1.73610675       0.12126276       3.01807142       0.00000000
Si      -3.19493231       0.95539451      -1.25836618       0.00000000
Si      -3.50322056       0.06315633       1.09456439       0.00000000
Si      -0.53310654      -0.02161683       3.63237128       0.00000000
Si       0.34681410       2.32292861      -2.83184992       0.00000000
