10
Lattice="16.28999089631971 0.0 0.0 0.0 16.28999089631971 0.0 0.0 0.0 34.63643526849801" Properties=species:S:1:pos:R:3:initial_magmoms:R:1 pbc="T T T"
Si      -2.15310210       1.09289840      -0.31328673       0.00000000
Si       1.42172930       1.55667796       1.22585340       0.00000000
Si       0.59417286      -0.96037695      -2.20845498       0.00000000
Si       0.33839380      -2.35041894       0.92333861       0.00000000
Si       1.26547562      -3.02454801      -1.31497300       0.00000000
Si       1.95667661       3.07215458      -0.73096774       0.00000000
Si       3.53555228       0.55469961       1.47970398       0.00000000
Si      -2.12858565       3.24259685       0.66107137       0.00000000
Si      -1.74041124      -3.52619856       0.96441744       0.00000000
Si      -2.54005476       1.98315179      -2.51387924       0.00000000
