10
Lattice="16.28999089631971 0.0 0.0 0.0 16.28999089631971 0.0 0.0 0.0 34.63643526849801" Properties=species:S:1:pos:R:3:initial_magmoms:R:1 pbc="T T T"
Si       1.23746985       0.66948642      -1.86998755       0.00000000
Si      -0.31482054      -2.30899070       0.27930837       0.00000000
Si       0.33594867       1.15913124       2.01459475       0.00000000
Si      -2.32808535       0.22669164      -0.26057005       0.00000000
Si       3.40731414       0.39517911      -0.84329376       0.00000000
Si      -2.75664267      -2.18999828       0.48941310       0.00000000
Si       0.94556934       3.03746598      -1.71692906       0.00000000
Si      -2.95670016       1.28114334       1.74297567       0.00000000
Si      -0.07775217      -0.29737395      -3.70513082       0.00000000
Si      -1.41204978       0.75785967       3.47857377       0.00000000
