10
Lattice="16.28999089631971 0.0 0.0 0.0 16.28999089631971 0.0 0.0 0.0 34.63643526849801" Properties=species:S:1:pos:R:3:initial_magmoms:R:1 pbc="T T T"
Si       0.78939711      -0.46980360      -2.14250717       0.00000000
Si      -1.02628629      -2.17415204       0.21810575       0.00000000
Si       1.31522202       0.96686037       1.83514328       0.00000000
Si      -1.94904963       1.48657653      -0.51012570       0.00000000
Si       1.04418900       1.63484811      -3.15357992       0.00000000
Si       0.07775217       0.29737395       3.70513082       0.00000000
Si      -0.92522313      -1.71815354      -3.17869135       0.00000000
Si      -2.68885998       2.02323429       1.65226279       0.00000000
Si      -3.38662584      -1.67682907       0.28724012       0.00000000
Si       2.66170455      -2.42625608       1.30007932       0.00000000
