10
Lattice="16.28999089631971 0.0 0.0 0.0 16.28999089631971 0.0 0.0 0.0 34.63643526849801" Properties=species:S:1:pos:R:3:initial_magmoms:R:1 pbc="T T T"
Si      -1.74799845      -0.40127157       1.46397903       0.00000000
Si       2.12817447       0.12873987       0.90290310       0.00000000
Si      -0.33594867      -1.15913124      -2.01459475       0.00000000
Si      -0.16931826       2.34343053      -0.18520112       0.00000000
Si      -3.29264883       0.12201210      -0.27161908       0.00000000
Si       3.11679828       0.83227239      -1.09163714       0.00000000
Si       1.66143339       2.59680519      -1.65001143       0.00000000
Si      -0.03016908       2.78464518       2.15726230       0.00000000
Si      -2.66403402      -0.93243960      -2.27516479       0.00000000
Si      -1.75529637       1.36360332       3.03900253       0.00000000
