10
Lattice="16.28999089631971 0.0 0.0 0.0 16.28999089631971 0.0 0.0 0.0 34.63643526849801" Properties=species:S:1:pos:R:3:initial_magmoms:R:1 pbc="T T T"
Si      -2.12817447      -0.12873987      -0.90290310       0.00000000
Si       1.02617226      -2.04289958       0.39703768       0.00000000
Si       0.98862381       0.70353252      -1.99454024       0.00000000
Si       0.05100399       1.80934659       1.60127793       0.00000000
Si      -2.29749273       2.21469066      -1.08810422       0.00000000
Si       3.21900174      -1.30953681      -0.16660135       0.00000000
Si       3.21949044       0.86232744      -1.28057900       0.00000000
Si      -0.46674108       2.46806532      -2.55291452       0.00000000
Si      -2.15834355       2.65590531       1.25435920       0.00000000
Si       0.60882246      -2.49910754       2.76281144       0.00000000
