10
Lattice="16.28999089631971 0.0 0.0 0.0 16.28999089631971 0.0 0.0 0.0 34.63643526849801" Properties=species:S:1:pos:R:3:initial_magmoms:R:1 pbc="T T T"
Si       1.38469887      -1.33626870      -1.32468506       0.00000000
Si      -1.34110683      -1.35374787       1.35871538       0.00000000
Si       1.36480878       1.37381715       1.34860153       0.00000000
Si      -1.77844446       0.85068009      -1.29737422       0.00000000
Si       2.38317813       0.42057522      -2.49121869       0.00000000
Si      -2.70133812      -2.67849954      -0.01925094       0.00000000
Si      -2.70404226       0.00948078       2.70607346       0.00000000
Si       0.00853596      -2.70127296       2.71248121       0.00000000
Si      -2.70976005       2.70655092      -0.02930244       0.00000000
Si       2.73649194      -2.68765452       0.00647702       0.00000000
