10
Lattice="16.28999089631971 0.0 0.0 0.0 16.28999089631971 0.0 0.0 0.0 34.63643526849801" Properties=species:S:1:pos:R:3:initial_magmoms:R:1 pbc="T T T"
Si      -1.30344435       1.22937372      -1.52054036       0.00000000
Si      -1.39292532      -1.37704257       1.32321648       0.00000000
Si       0.95281839       1.87118343       1.25809994       0.00000000
Si       1.42169346      -1.46834802      -1.49494402       0.00000000
Si       0.77423112      -3.24904050       1.45341491       0.00000000
Si      -2.63924064       2.59862967      -0.09448825       0.00000000
Si       2.70418887       2.60218089      -0.15378586       0.00000000
Si      -0.75987963       3.60904950       0.96091916       0.00000000
Si      -2.65935879      -2.79570609      -0.11090593       0.00000000
Si       0.06525774       2.58836697      -2.88403903       0.00000000
