10
Lattice="16.28999089631971 0.0 0.0 0.0 16.28999089631971 0.0 0.0 0.0 34.63643526849801" Properties=species:S:1:pos:R:3:initial_magmoms:R:1 pbc="T T T"
Si      -1.34970795       1.30794039      -1.41489917       0.00000000
Si       1.26643347       1.41866352       1.43412240       0.00000000
Si      -1.40623425      -1.05531507       1.62327208       0.00000000
Si       1.36418976      -1.40592474      -1.39633403       0.00000000
Si      -2.67082695      -2.62967841       0.11700194       0.00000000
Si      -2.66802507       2.68297929       0.00280555       0.00000000
Si       3.43358991      -0.45333441       1.56432084       0.00000000
Si      -2.46316203       0.96290190       2.77143592       0.00000000
Si       0.01365102       2.66753637      -2.77510738       0.00000000
Si       2.65935879       2.79570609       0.11090593       0.00000000
