10
Lattice="16.28999089631971 0.0 0.0 0.0 16.28999089631971 0.0 0.0 0.0 34.63643526849801" Properties=species:S:1:pos:R:3:initial_magmoms:R:1 pbc="T T T"
Si       2.02225689      -0.04531878      -1.11422011       0.00000000
Si       0.32213475       0.90666882       2.17437271       0.00000000
Si      -0.56580057      -2.32870437       0.33583506       0.00000000
Si      -1.65666042       1.53013599      -0.96306662       0.00000000
Si      -1.12614399      -0.52991370       3.33639113       0.00000000
Si       1.13924115      -3.32151471      -0.94820758       0.00000000
Si      -0.22584456      -2.60470584       2.65024296       0.00000000
Si      -0.30993354       3.17425311       2.01940921       0.00000000
Si      -3.70887462       0.70661133       0.01319649       0.00000000
Si       3.13277877      -2.08800333      -0.61566298       0.00000000
