10
Lattice="16.28999089631971 0.0 0.0 0.0 16.28999089631971 0.0 0.0 0.0 34.63643526849801" Properties=species:S:1:pos:R:3:initial_magmoms:R:1 pbc="T T T"
Si      -1.35627282      -1.35829278      -1.35598256       0.00000000
Si      -1.35725022       1.35704146       1.35837248       0.00000000
Si       1.35788553      -1.35808101       1.35785293       0.00000000
Si       1.35992178       1.35682478      -1.35761048       0.00000000
Si      -2.71410948       2.71443758       0.00020782       0.00000000
Si      -2.71391237       0.00312768      -2.71529022       0.00000000
Si      -2.71404921      -0.00122175       2.71567122       0.00000000
Si      -2.71456397      -2.71560816       0.00034636       0.00000000
Si       2.71585251      -0.00175932       2.71463213       0.00000000
Si       0.00070047      -2.71551042       2.71497850       0.00000000
