10
Lattice="16.28999089631971 0.0 0.0 0.0 16.28999089631971 0.0 0.0 0.0 34.63643526849801" Properties=species:S:1:pos:R:3:initial_magmoms:R:1 pbc="T T T"
Si      -1.58602698       0.29773233      -1.70872022       0.00000000
Si      -1.47240423      -1.23369057       1.50062440       0.00000000
Si       0.23130171       2.20032029       1.10019234       0.00000000
Si       2.00094957      -1.19399184      -1.08173111       0.00000000
Si      -0.39262158       0.13623327      -3.71361676       0.00000000
Si      -2.46309687       2.46197353      -1.57796760       0.00000000
Si      -3.42748116       0.26917596       1.97452037       0.00000000
Si       1.32007644      -1.60163280      -3.41643597       0.00000000
Si       1.17182115       3.84943193      -0.38439537       0.00000000
Si      -1.91993940      -3.51642456       0.63613313       0.00000000
