10
Lattice="16.28999089631971 0.0 0.0 0.0 16.28999089631971 0.0 0.0 0.0 34.63643526849801" Properties=species:S:1:pos:R:3:initial_magmoms:R:1 pbc="T T T"
Si      -1.65325581       0.13484862       1.66123364       0.00000000
Si       1.61168373       1.15795836       1.26291441       0.00000000
Si       0.63206829      -2.26758429       0.15496350       0.00000000
Si      -0.89919171       0.63861687      -2.11798456       0.00000000
Si       1.65061683      -0.46618722       3.05853749       0.00000000
Si      -1.34672688      -1.64411712      -2.98247583       0.00000000
Si       0.60030279       3.33899388       1.41995609       0.00000000
Si      -0.61621812      -0.76608612       3.56786655       0.00000000
Si       2.50214400      -2.26154070       1.63359375       0.00000000
Si       0.30993354      -3.17425311      -2.01940921       0.00000000
