10
Lattice="16.28999089631971 0.0 0.0 0.0 16.28999089631971 0.0 0.0 0.0 34.63643526849801" Properties=species:S:1:pos:R:3:initial_magmoms:R:1 pbc="T T T"
Si      -1.08499545       1.14845496      -1.72302507       0.00000000
Si       2.21604273       0.84563019      -0.16753653       0.00000000
Si      -0.36176832      -2.32837857      -0.36309395       0.00000000
Si      -0.82442061       0.29351322       2.22400675       0.00000000
Si       0.37957329      -3.02575347       1.79344098       0.00000000
Si       3.48459390      -0.97419087       0.80883049       0.00000000
Si       2.15578602      -1.67842386       2.61384005       0.00000000
Si      -1.38429162      -1.97903952       2.95982359       0.00000000
Si      -1.17289629      -0.26507088      -3.64437848       0.00000000
Si      -2.71899648      -2.53749330      -0.95070141       0.00000000
