10
Lattice="16.28999089631971 0.0 0.0 0.0 16.28999089631971 0.0 0.0 0.0 34.63643526849801" Properties=species:S:1:pos:R:3:initial_magmoms:R:1 pbc="T T T"
Si       0.82442061      -0.29351322      -2.22400675       0.00000000
Si      -1.69520256       1.69441805       0.05143514       0.00000000
Si       1.87201422      -0.13418073       1.54520151       0.00000000
Si      -0.55987101      -2.27255274       0.73581684       0.00000000
Si      -1.96561656       1.21486000       2.47976233       0.00000000
Si       1.20399390      -3.31926669      -0.43056577       0.00000000
Si       2.98020663      -1.97193708       0.38983330       0.00000000
Si       0.46265229      -2.62189179      -2.58710071       0.00000000
Si       3.04046334       0.55211697      -2.39154328       0.00000000
Si       3.12719130       1.95269600       1.45396909       0.00000000
