10
Lattice="16.28999089631971 0.0 0.0 0.0 16.28999089631971 0.0 0.0 0.0 34.63643526849801" Properties=species:S:1:pos:R:3:initial_magmoms:R:1 pbc="T T T"
Si       1.35708732       1.35055503      -1.35549765       0.00000000
Si       1.29938814      -1.37125052       1.40391942       0.00000000
Si      -1.35597960      -1.36393631      -1.36010430       0.00000000
Si      -1.23615036       1.41750693       1.45147527       0.00000000
Si      -2.02683438      -0.38196140       2.76731418       0.00000000
Si      -0.55633608      -2.26508282       2.60847140       0.00000000
Si       2.14694055       0.41296779       2.76939237       0.00000000
Si       0.55009701       2.25965106       2.79748253       0.00000000
Si      -0.00039096       2.70839169      -2.71504777       0.00000000
Si      -2.71575477      -2.71095641      -0.01672941       0.00000000
