10
Lattice="16.28999089631971 0.0 0.0 0.0 16.28999089631971 0.0 0.0 0.0 34.63643526849801" Properties=species:S:1:pos:R:3:initial_magmoms:R:1 pbc="T T T"
Si       2.12848398      -0.98504394       0.26881352       0.00000000
Si      -1.10113884      -0.29905834      -2.11119582       0.00000000
Si       0.59903217       2.32865876      -0.23532007       0.00000000
Si      -1.30535028      -1.03269219       1.82717689       0.00000000
Si      -0.29396934      -3.21372771       1.67013521       0.00000000
Si      -3.17765772       0.92376029      -1.61540961       0.00000000
Si       1.81395666      -3.24893040       0.60385195       0.00000000
Si      -0.61116822       3.14571629      -2.10115125       0.00000000
Si      -0.16061940       1.35005330      -3.59578354       0.00000000
Si      -0.21527235      -0.28752502       3.83134606       0.00000000
