10
Lattice="16.28999089631971 0.0 0.0 0.0 16.28999089631971 0.0 0.0 0.0 34.63643526849801" Properties=species:S:1:pos:R:3:initial_magmoms:R:1 pbc="T T T"
Si       1.73495016      -1.40221062       0.74243240       0.00000000
Si       0.83453670       1.80529038       1.26772888       0.00000000
Si       0.52820325       0.27635985      -2.29601594       0.00000000
Si      -2.25714240      -0.35215722       0.78600506       0.00000000
Si       0.28465146       0.81850734       3.31955781       0.00000000
Si       3.58639011      -0.29787894      -0.18423130       0.00000000
Si      -2.02546602       0.68748687       2.91154038       0.00000000
Si       0.40904190       2.65812075      -2.41461116       0.00000000
Si       1.50343668      -1.21790556       3.07481662       0.00000000
Si      -3.46734279       0.46490031      -1.07982611       0.00000000
