10
Lattice="16.28999089631971 0.0 0.0 0.0 16.28999089631971 0.0 0.0 0.0 34.63643526849801" Properties=species:S:1:pos:R:3:initial_magmoms:R:1 pbc="T T T"
Si       2.18733975      -0.87033953       0.39229249       0.00000000
Si      -1.09007793      -0.74516717      -2.00416917       0.00000000
Si      -0.68781267      -0.63335261       2.23567924       0.00000000
Si      -0.26671617       2.37364196      -0.44241143       0.00000000
Si      -0.07869699      -2.92620269      -2.16121086       0.00000000
Si       3.41001828      -0.24856471      -1.49539429       0.00000000
Si       0.21527235       0.28752502      -3.83134606       0.00000000
Si       2.95117785      -0.08541824       2.47297359       0.00000000
Si      -2.43656046       2.64794927      -1.46910522       0.00000000
Si      -0.18373491       1.22343439       3.71541785       0.00000000
