10
Lattice="16.28999089631971 0.0 0.0 0.0 16.28999089631971 0.0 0.0 0.0 34.63643526849801" Properties=species:S:1:pos:R:3:initial_magmoms:R:1 pbc="T T T"
Si      -0.84391974       0.45488196      -2.09602505       0.00000000
Si      -0.15468984      -2.27682072       0.45924475       0.00000000
Si      -1.70504172       0.99281034       1.28404265       0.00000000
Si       1.99353762       1.23351138       0.33254460       0.00000000
Si       0.88301574       3.27619593      -0.16601253       0.00000000
Si      -2.46638745      -2.39412501      -0.06608636       0.00000000
Si      -3.50415819      -0.20735541       0.28872949       0.00000000
Si       0.93788046      -0.63535887      -3.39856356       0.00000000
Si      -1.13924115       3.32151471       0.94820758       0.00000000
Si       2.61493596       0.85353084       2.59184590       0.00000000
