10
Lattice="16.28999089631971 0.0 0.0 0.0 16.28999089631971 0.0 0.0 0.0 34.63643526849801" Properties=species:S:1:pos:R:3:initial_magmoms:R:1 pbc="T T T"
Si       1.43410644       1.77328053       0.49640967       0.00000000
Si       1.53225369      -1.78996149       0.21495384       0.00000000
Si      -0.62139834       0.37998054      -2.25930130       0.00000000
Si      -1.71642843      -0.51306984       1.58537980       0.00000000
Si       2.90753694       1.70877213      -1.31635846       0.00000000
Si      -1.34938215       1.28229993       3.15808266       0.00000000
Si      -1.32774903      -2.90776500       1.85876534       0.00000000
Si       0.98236845      -2.77674453       2.26678277       0.00000000
Si       1.10675889      -0.93713112      -3.46738620       0.00000000
Si      -2.61493596      -0.85353084      -2.59184590       0.00000000
