10
Lattice="16.28999089631971 0.0 0.0 0.0 16.28999089631971 0.0 0.0 0.0 34.63643526849801" Properties=species:S:1:pos:R:3:initial_magmoms:R:1 pbc="T T T"
Si      -1.17765949      -2.00532248       0.47084796       0.00000000
Si      -1.19888210       2.07669807      -0.25495894       0.00000000
Si       1.80716373       0.50383993       1.51562198       0.00000000
Si       0.79996932      -0.21664397      -2.27274024       0.00000000
Si       0.59991183       3.25449765      -1.01917768       0.00000000
Si       2.14456221       2.73121398       0.71642043       0.00000000
Si      -2.88617165      -1.75049801      -1.12883669       0.00000000
Si       1.22852664       2.20004595      -3.02272340       0.00000000
Si      -3.87297098       0.37854539      -0.65677645       0.00000000
Si       3.50236629      -1.19057813       1.46418685       0.00000000
