10
Lattice="16.28999089631971 0.0 0.0 0.0 16.28999089631971 0.0 0.0 0.0 34.63643526849801" Properties=species:S:1:pos:R:3:initial_magmoms:R:1 pbc="T T T"
Si       1.33333650       1.34565174       1.36313499       0.00000000
Si      -1.32348105       1.39297419      -1.37655662       0.00000000
Si      -1.38223908      -1.36500426       1.35523788       0.00000000
Si       1.39124745      -1.37391489      -1.35099145       0.00000000
Si      -1.75176144      -0.36838206      -2.86013784       0.00000000
Si      -0.36386973      -2.31824619      -2.48458234       0.00000000
Si       2.68975593       2.68947900      -0.01258689       0.00000000
Si       2.69340489      -0.01251072       2.71703936       0.00000000
Si       2.67905340      -2.73598695       0.00772393       0.00000000
Si      -0.02109555       2.70247842       2.71693546       0.00000000
