10
Lattice="16.28999089631971 0.0 0.0 0.0 16.28999089631971 0.0 0.0 0.0 34.63643526849801" Properties=species:S:1:pos:R:3:initial_magmoms:R:1 pbc="T T T"
Si       1.35759231      -1.35659862      -1.35750657       0.00000000
Si      -1.35760860       1.35822762      -1.35726411       0.00000000
Si       1.35804843       1.35749457       1.35813002       0.00000000
Si      -1.35702216      -1.35866745       1.35819930       0.00000000
Si      -0.00039096      -2.71122615       2.71553268       0.00000000
Si       2.71487511       0.00001629      -2.71400868       0.00000000
Si       0.00037467       2.71500543      -2.71411258       0.00000000
Si       2.71482624      -2.71487511       0.00024246       0.00000000
Si       2.71520091       2.71495656      -0.00020782       0.00000000
Si      -2.71547784      -2.71474479       0.00017318       0.00000000
