10
Lattice="16.28999089631971 0.0 0.0 0.0 16.28999089631971 0.0 0.0 0.0 34.63643526849801" Properties=species:S:1:pos:R:3:initial_magmoms:R:1 pbc="T T T"
Si       1.35922131      -1.35553977      -1.36003503       0.00000000
Si      -1.35542574       1.36176255      -1.36065848       0.00000000
Si      -1.36060596      -1.33651305       1.38805592       0.00000000
Si       1.36018242       1.36085031       1.37728398       0.00000000
Si      -2.71265967      -2.71308321       0.00024246       0.00000000
Si       2.71643895      -2.71023246      -0.00041564       0.00000000
Si       0.00117288      -2.71303434      -2.71816505       0.00000000
Si      -2.71391400       0.00218286      -2.71764550       0.00000000
Si       2.71507059       2.71876842       0.00090055       0.00000000
Si       2.71637379       0.00192222      -2.71837287       0.00000000
