10
Lattice="16.28999089631971 0.0 0.0 0.0 16.28999089631971 0.0 0.0 0.0 34.63643526849801" Properties=species:S:1:pos:R:3:initial_magmoms:R:1 pbc="T T T"
Si      -1.13885019      -1.97605845       0.42727530       0.00000000
Si      -0.89687853       1.92182904      -1.13943545       0.00000000
Si       0.92910015       0.83380365       2.06641088       0.00000000
Si       1.82568546      -0.76098735      -1.44963954       0.00000000
Si       1.33283151       2.99652921      -1.52514701       0.00000000
Si       3.02677974       1.23628068      -1.86354517       0.00000000
Si      -3.16110708      -1.93073967       1.54149541       0.00000000
Si       3.28217436       1.26477189       2.02308068       0.00000000
Si      -1.57775166       1.51418808      -3.47414031       0.00000000
Si      -0.02832831      -4.01874300       0.92583243       0.00000000
