10
Lattice="16.28999089631971 0.0 0.0 0.0 16.28999089631971 0.0 0.0 0.0 34.63643526849801" Properties=species:S:1:pos:R:3:initial_magmoms:R:1 pbc="T T T"
Si       0.08423559      -1.35472527       1.92242714       0.00000000
Si      -0.68053104       1.53246546       1.69112490       0.00000000
Si       2.35307421       0.43096824      -0.04333020       0.00000000
Si      -0.92910015      -0.83380365      -2.06641088       0.00000000
Si       0.87566895       0.52916436       3.43545139       0.00000000
Si      -1.82597868       1.08802539      -3.20584633       0.00000000
Si      -2.06795034      -2.80986210      -1.63913558       0.00000000
Si       3.64651650      -1.50136785       0.13130680       0.00000000
Si       0.89658531      -1.59479100      -3.51605042       0.00000000
Si       1.09807632      -3.45924666       1.61513252       0.00000000
