10
Lattice="16.28999089631971 0.0 0.0 0.0 16.28999089631971 0.0 0.0 0.0 34.63643526849801" Properties=species:S:1:pos:R:3:initial_magmoms:R:1 pbc="T T T"
Si       1.27959579      -1.34995230       1.39158884       0.00000000
Si       1.35977517       1.34702010      -1.34337489       0.00000000
Si      -1.35933534      -1.36376622      -1.33866433       0.00000000
Si      -1.16452323       1.51497882       1.37790744       0.00000000
Si      -2.18447271      -0.34308369       2.50629386       0.00000000
Si       2.15941869       0.44587359       2.62520081       0.00000000
Si      -0.47177469      -2.08094976       2.80347464       0.00000000
Si       0.68892039       2.32899500       2.78404359       0.00000000
Si       0.00167787       2.70341088      -2.69863009       0.00000000
Si      -2.71331127      -0.01073511      -2.69880327       0.00000000
