10
Lattice="16.28999089631971 0.0 0.0 0.0 16.28999089631971 0.0 0.0 0.0 34.63643526849801" Properties=species:S:1:pos:R:3:initial_magmoms:R:1 pbc="T T T"
Si       0.77675607       1.92875229       1.15547213       0.00000000
Si      -0.27938979       1.04448222      -2.12726713       0.00000000
Si       1.69394823      -1.76024853      -0.33839816       0.00000000
Si      -2.22971004      -1.07470017       0.38571156       0.00000000
Si      -1.33283151      -2.99652921       1.52514701       0.00000000
Si      -1.15921269      -0.75134367      -3.36087910       0.00000000
Si      -0.82464867       3.66296030       0.26541915       0.00000000
Si       0.49285395      -3.75751656       0.07550747       0.00000000
Si      -2.91058317      -1.48234113      -1.94899330       0.00000000
Si      -1.74988809       2.92760363      -1.96842435       0.00000000
