10
Lattice="16.28999089631971 0.0 0.0 0.0 16.28999089631971 0.0 0.0 0.0 34.63643526849801" Properties=species:S:1:pos:R:3:initial_magmoms:R:1 pbc="T T T"
Si      -1.35614250      -1.35711000      -1.35764511       0.00000000
Si      -1.35713619       1.35600729       1.35979257       0.00000000
Si       1.35880682       1.35727791      -1.35702166       0.00000000
Si       1.35998713      -1.35492979       1.36194003       0.00000000
Si      -2.71415835      -2.71239481      -0.00062346       0.00000000
Si      -2.71389771       0.00012217      -2.71438968       0.00000000
Si      -2.71461447       2.71384395       0.00024246       0.00000000
Si       0.00136836       2.71451184      -2.71435504       0.00000000
Si      -2.71422351       0.00545226       2.71529022       0.00000000
Si       0.00161271      -2.71526185      -2.71438968       0.00000000
