10
Lattice="16.28999089631971 0.0 0.0 0.0 16.28999089631971 0.0 0.0 0.0 34.63643526849801" Properties=species:S:1:pos:R:3:initial_magmoms:R:1 pbc="T T T"
Si      -1.78624737      -0.84214413      -1.34600726       0.00000000
Si       0.80084898       1.80494829      -1.43090121       0.00000000
Si       1.59684354      -1.84668327      -0.02809016       0.00000000
Si      -0.34088454       0.00663003       3.29974576       0.00000000
Si      -1.65169197      -1.90625580       2.20367515       0.00000000
Si       2.18672073       0.44676954      -2.77950621       0.00000000
Si      -0.55009701      -2.25965106      -2.79748253       0.00000000
Si      -2.57693139      -2.64161246      -0.03016835       0.00000000
Si       2.00831265      -0.58723821       3.14686045       0.00000000
Si      -3.24386028       1.83663234       0.65812727       0.00000000
