10
Lattice="16.28999089631971 0.0 0.0 0.0 16.28999089631971 0.0 0.0 0.0 34.63643526849801" Properties=species:S:1:pos:R:3:initial_magmoms:R:1 pbc="T T T"
Si       1.05428880       1.62636102      -1.31396861       0.00000000
Si      -1.28559051       1.36671471       1.43109171       0.00000000
Si       1.44742971      -1.31952258       1.40538107       0.00000000
Si      -0.66720582      -2.05087842      -1.14583488       0.00000000
Si      -0.69007698       3.35951928      -1.21311169       0.00000000
Si      -2.57339646       2.72878677       0.07237634       0.00000000
Si      -2.68583004      -2.64366337      -0.01075116       0.00000000
Si      -2.62669734       0.01589904       2.78833851       0.00000000
Si       2.74412122       2.67828777      -0.02381603       0.00000000
Si       0.08728182      -2.69680298       2.77864030       0.00000000
