10
Lattice="16.28999089631971 0.0 0.0 0.0 16.28999089631971 0.0 0.0 0.0 34.63643526849801" Properties=species:S:1:pos:R:3:initial_magmoms:R:1 pbc="T T T"
Si      -1.28780595       1.36207206      -1.35871538       0.00000000
Si      -1.34110683      -1.35081567       1.35724679       0.00000000
Si       1.28559051      -1.36671471      -1.43109171       0.00000000
Si       1.37533212       1.36775727       1.35184351       0.00000000
Si       0.59551353       1.99280457      -2.64420340       0.00000000
Si       2.33987931       0.25964631      -2.74506033       0.00000000
Si      -2.68960932      -2.69048898       0.00538943       0.00000000
Si      -2.69941590       0.00630423       2.70844952       0.00000000
Si       0.01386279      -2.70516627       2.70806852       0.00000000
Si      -2.67905340       2.73598695      -0.00772393       0.00000000
