10
Lattice="16.28999089631971 0.0 0.0 0.0 16.28999089631971 0.0 0.0 0.0 34.63643526849801" Properties=species:S:1:pos:R:3:initial_magmoms:R:1 pbc="T T T"
Si       1.35786924       1.35638685       1.35646747       0.00000000
Si      -1.35860881      -1.35710361       1.35598256       0.00000000
Si       1.35723393      -1.35801585      -1.35795684       0.00000000
Si      -1.35774381       1.35894438      -1.35698702       0.00000000
Si      -0.00006516       2.71461447      -2.71283104       0.00000000
Si       0.00017919      -2.71357191      -2.71497850       0.00000000
Si       2.71443528       2.71508688      -0.00017318       0.00000000
Si       2.71497285      -2.71459818      -0.00006927       0.00000000
Si      -2.71477103       0.00089595      -2.71515168       0.00000000
Si      -2.71524791      -2.71529865      -0.00034636       0.00000000
