10
Lattice="16.28999089631971 0.0 0.0 0.0 16.28999089631971 0.0 0.0 0.0 34.63643526849801" Properties=species:S:1:pos:R:3:initial_magmoms:R:1 pbc="T T T"
Si       1.76575359      -0.16500141      -1.51288570       0.00000000
Si       1.19917762       0.96415623       1.76687482       0.00000000
Si      -0.73024812      -2.10970161       0.71849861       0.00000000
Si      -1.75220127       1.47699801      -0.56800322       0.00000000
Si       0.62423673      -0.74642409      -3.39236364       0.00000000
Si      -0.67719159       3.49938522      -0.23906081       0.00000000
Si       1.07040517       3.26485809       1.21740211       0.00000000
Si       3.49015598      -1.36133901      -0.27851173       0.00000000
Si       3.41375588       0.10769319       1.63182729       0.00000000
Si      -3.22563177       1.54150641       1.24476491       0.00000000
