10
Lattice="16.28999089631971 0.0 0.0 0.0 16.28999089631971 0.0 0.0 0.0 34.63643526849801" Properties=species:S:1:pos:R:3:initial_magmoms:R:1 pbc="T T T"
Si       2.08238328      -0.53628309       0.86726219       0.00000000
Si      -0.14015916      -1.28987478      -1.98265994       0.00000000
Si      -1.48667427      -0.94806171       1.58825463       0.00000000
Si      -0.28564515       2.43212958      -0.20584445       0.00000000
Si      -1.12827798       0.56330820       3.39579265       0.00000000
Si      -2.45027664      -1.42089525      -2.39067737       0.00000000
Si       0.68787783       2.03295942       3.14717218       0.00000000
Si       2.39151861       0.30773439       2.99567232       0.00000000
Si       3.80620737       0.44142642      -0.38325237       0.00000000
Si      -2.47190976       2.76916968      -1.09136005       0.00000000
