10
Lattice="16.28999089631971 0.0 0.0 0.0 16.28999089631971 0.0 0.0 0.0 34.63643526849801" Properties=species:S:1:pos:R:3:initial_magmoms:R:1 pbc="T T T"
Si       0.72861912       0.74963322       2.09571332       0.00000000
Si      -1.81615581      -1.46965122       0.24862047       0.00000000
Si      -0.60031908       1.78567722      -1.43003530       0.00000000
Si       1.70364078      -1.72522503      -0.15149985       0.00000000
Si      -0.90282438      -2.57264712       2.14413509       0.00000000
Si      -0.97352298       0.39917016      -3.35301663       0.00000000
Si       0.93923253      -1.33965702       3.18883983       0.00000000
Si       1.39450545      -2.56924251      -2.27990999       0.00000000
Si      -0.68787783      -2.03295942      -3.14717218       0.00000000
Si      -3.72871584      -0.31128561       0.95374941       0.00000000
