10
Lattice="16.28999089631971 0.0 0.0 0.0 16.28999089631971 0.0 0.0 0.0 34.63643526849801" Properties=species:S:1:pos:R:3:initial_magmoms:R:1 pbc="T T T"
Si      -1.33333650      -1.34565174      -1.36313499       0.00000000
Si      -1.35443205       1.35682668       1.35380047       0.00000000
Si       1.36006839      -1.35816246       1.35390437       0.00000000
Si       1.35641943       1.34382726      -1.37572188       0.00000000
Si       2.66320323      -0.13323591      -2.72605523       0.00000000
Si      -2.65681755       0.04732245      -2.73969161       0.00000000
Si      -2.71241532       0.00004887       2.71064894       0.00000000
Si       0.00278559      -2.71477737       2.71040648       0.00000000
Si      -2.71163340       2.71366965      -0.01046021       0.00000000
Si       0.00257382       2.71438641       2.71096067       0.00000000
