10
Lattice="16.28999089631971 0.0 0.0 0.0 16.28999089631971 0.0 0.0 0.0 34.63643526849801" Properties=species:S:1:pos:R:3:initial_magmoms:R:1 pbc="T T T"
Si      -1.43410644      -1.77328053      -0.49640967       0.00000000
Si       1.47343050      -0.06450840      -1.81276813       0.00000000
Si      -1.01384073       2.10452139       0.30729463       0.00000000
Si       1.08191664       0.03383433       2.09779151       0.00000000
Si       2.54844018       1.95787881      -1.48382572       0.00000000
Si       0.09814725      -3.56324202      -0.28145583       0.00000000
Si      -0.59722398      -0.82802070       3.54718859       0.00000000
Si      -2.05550478      -1.39329999      -2.75571097       0.00000000
Si      -2.99607309       1.60741575       1.51295497       0.00000000
Si       1.34526078       2.32829712       2.59475536       0.00000000
