10
Lattice="16.28999089631971 0.0 0.0 0.0 16.28999089631971 0.0 0.0 0.0 34.63643526849801" Properties=species:S:1:pos:R:3:initial_magmoms:R:1 pbc="T T T"
Si      -1.34312679      -1.34679204       1.38159622       0.00000000
Si       1.37655387       1.36601165       1.37494602       0.00000000
Si       1.29371922      -1.47672108      -1.37578076       0.00000000
Si      -1.39655799       1.41915126      -1.41444543       0.00000000
Si       0.62206623       2.01193622      -2.54952916       0.00000000
Si       2.41057791       0.24139729      -2.58563905       0.00000000
Si      -2.69457777      -2.68988625      -0.01121528       0.00000000
Si      -2.68592778       2.73904037       0.03278687       0.00000000
Si      -2.69509905       0.00569230       2.73667823       0.00000000
Si       2.72500775      -2.70703962       0.03164386       0.00000000
