10
Lattice="16.28999089631971 0.0 0.0 0.0 16.28999089631971 0.0 0.0 0.0 34.63643526849801" Properties=species:S:1:pos:R:3:initial_magmoms:R:1 pbc="T T T"
Si       1.35488817       1.35791811      -1.37638343       0.00000000
Si      -1.36018242      -1.36085031      -1.37728398       0.00000000
Si       1.43109279      -1.34102538       1.38116326       0.00000000
Si      -1.43829297       1.37316555       1.35193010       0.00000000
Si       2.71230129       2.70402597       0.00294410       0.00000000
Si      -2.72078838      -2.69736336       0.01077194       0.00000000
Si       2.71319724      -2.71153566      -0.02621980       0.00000000
Si      -2.71788876       2.72311785      -0.03965874       0.00000000
Si       2.71397916      -0.00280188      -2.73766537       0.00000000
Si      -2.71560816       0.00091224      -2.73794247       0.00000000
