10
Lattice="16.28999089631971 0.0 0.0 0.0 16.28999089631971 0.0 0.0 0.0 34.63643526849801" Properties=species:S:1:pos:R:3:initial_magmoms:R:1 pbc="T T T"
Si      -0.68939280      -1.98083142      -1.03389817       0.00000000
Si      -0.80537760       0.08436591       2.20869744       0.00000000
Si      -1.49501475       1.54999350      -1.01245821       0.00000000
Si       2.34518889       0.05654259       0.44996218       0.00000000
Si      -3.40847073       1.38455226       0.36551851       0.00000000
Si       0.58479471      -2.03589162      -3.07017534       0.00000000
Si       2.48778829      -0.96106113       2.61009931       0.00000000
Si      -2.16679806      -1.88263530       2.44488342       0.00000000
Si      -0.94582998       3.64820156      -0.18218775       0.00000000
Si       1.00585863       0.48856968       3.65774815       0.00000000
