10
Lattice="16.28999089631971 0.0 0.0 0.0 16.28999089631971 0.0 0.0 0.0 34.63643526849801" Properties=species:S:1:pos:R:3:initial_magmoms:R:1 pbc="T T T"
Si       1.48192966      -1.44963081      -1.04764884       0.00000000
Si      -1.81123623      -0.40420377      -1.44905072       0.00000000
Si      -0.58490874      -0.15188796       2.30450187       0.00000000
Si       1.43007534       1.84616592      -0.59207556       0.00000000
Si       1.33933026      -0.43202709      -3.20778597       0.00000000
Si       3.42375794      -0.79723260       0.11329584       0.00000000
Si       3.10123223       1.38196608       1.16059832       0.00000000
Si      -0.03481173       3.64996088      -0.63034884       0.00000000
Si      -1.57170807       1.97715544       2.77656211       0.00000000
Si      -3.34806741       1.34493679      -1.22509140       0.00000000
