10
Lattice="16.28999089631971 0.0 0.0 0.0 16.28999089631971 0.0 0.0 0.0 34.63643526849801" Properties=species:S:1:pos:R:3:initial_magmoms:R:1 pbc="T T T"
Si      -0.79674390       1.32457248      -1.77743894       0.00000000
Si      -0.20196342       0.91005714       2.16872697       0.00000000
Si       2.31756201      -0.56255886      -0.17706156       0.00000000
Si      -1.39461948      -1.87416450      -0.51300053       0.00000000
Si      -2.18895083      -0.11150505       2.78151513       0.00000000
Si      -0.65480913      -2.41082226      -2.67538903       0.00000000
Si       1.53862308      -0.09746307       3.36926112       0.00000000
Si      -0.95609268      -3.37333320       1.27929745       0.00000000
Si      -0.72034380      -0.14445972      -3.68777796       0.00000000
Si       3.36937473       0.15591159       1.90445082       0.00000000
