10
Lattice="16.28999089631971 0.0 0.0 0.0 16.28999089631971 0.0 0.0 0.0 34.63643526849801" Properties=species:S:1:pos:R:3:initial_magmoms:R:1 pbc="T T T"
Si      -1.32370911       1.36335897       1.43453458       0.00000000
Si       1.38653964      -1.38564369       1.42281706       0.00000000
Si       1.35136953       1.35571896      -1.51080548       0.00000000
Si      -1.91568771      -0.89094897      -1.22941022       0.00000000
Si       2.05148115      -0.45823770      -2.96158801       0.00000000
Si      -2.67966916      -0.00996948       2.80279923       0.00000000
Si      -2.71504453       2.77193898       0.04141135       0.00000000
Si       0.03323160       2.70387936       2.80314559       0.00000000
Si      -2.73787822      -2.77778709      -0.00170065       0.00000000
Si       2.74098798       2.77907400      -0.09850608       0.00000000
