10
Lattice="16.28999089631971 0.0 0.0 0.0 16.28999089631971 0.0 0.0 0.0 34.63643526849801" Properties=species:S:1:pos:R:3:initial_magmoms:R:1 pbc="T T T"
Si      -1.20311424       0.40575132      -1.97427791       0.00000000
Si       1.74781926       1.54127835       0.31418728       0.00000000
Si      -0.77564835      -0.50112927       2.19844505       0.00000000
Si       0.57195819      -2.00658591      -1.18848067       0.00000000
Si      -3.09466180      -0.73917504      -1.25377038       0.00000000
Si       2.58486462      -2.29773708      -0.03006444       0.00000000
Si       0.00213399      -1.06121205      -3.35325908       0.00000000
Si       2.78485695       0.64034361       2.22082020       0.00000000
Si       2.45304594      -1.69728768       2.30761915       0.00000000
Si      -1.01669148       3.09985668       1.92007186       0.00000000
