10
Lattice="16.28999089631971 0.0 0.0 0.0 16.28999089631971 0.0 0.0 0.0 34.63643526849801" Properties=species:S:1:pos:R:3:initial_magmoms:R:1 pbc="T T T"
Si       1.33121921      -1.29212280      -1.41604217       0.00000000
Si      -1.34713439      -1.35773892       1.34271334       0.00000000
Si       1.36618569       1.36119240       1.34614235       0.00000000
Si      -1.43128853       1.23031854      -1.40742462       0.00000000
Si      -2.70871775       0.00133578       2.70461873       0.00000000
Si       0.00778850       2.71495568       2.70423773       0.00000000
Si       0.00797270      -2.71617831       2.70499973       0.00000000
Si       2.72255462      -2.70070281      -0.02291894       0.00000000
Si       2.72382524      -0.00022806       2.70545001       0.00000000
Si      -2.72500775       2.70703962      -0.03164386       0.00000000
