10
Lattice="16.28999089631971 0.0 0.0 0.0 16.28999089631971 0.0 0.0 0.0 34.63643526849801" Properties=species:S:1:pos:R:3:initial_magmoms:R:1 pbc="T T T"
Si       0.67130276      -2.06417106       0.89348198       0.00000000
Si       1.40554193       1.13585283      -1.58513735       0.00000000
Si      -1.23109950      -1.51568676      -1.51295497       0.00000000
Si      -0.59417286       0.96037695       2.20845498       0.00000000
Si      -0.25577906      -1.39004199       3.13179359       0.00000000
Si       2.63082686       2.63123640      -0.19451833       0.00000000
Si      -2.74727496       2.05327535       1.89516825       0.00000000
Si       2.77215890      -2.78080074      -0.10623001       0.00000000
Si      -2.16282234      -3.29802453      -0.30303434       0.00000000
Si       0.13534547       2.52131637      -3.04911637       0.00000000
