10
Lattice="10.86 0.0 0.0 0.0 10.86 0.0 0.0 0.0 10.86" Properties=species:S:1:pos:R:3:initial_magmoms:R:1 pbc="T T T"
Si       1.22551842       1.38156576       1.32195522       0.00000000
Si       1.22551842      -1.33343424      -1.39304478       0.00000000
Si      -1.48948158       1.38156576      -1.39304478       0.00000000
Si      -0.09273354      -2.55574896       2.56881354       0.00000000
Si       2.58301842       0.02406576       2.67945522       0.00000000
Si       2.58301842      -2.69093424      -0.03554478       0.00000000
Si       2.58301842       2.73906576      -0.03554478       0.00000000
Si       2.58301842       0.02406576      -2.75054478       0.00000000
Si      -2.83116942       2.56377450      -0.01748460       0.00000000
Si      -0.13198158      -2.69093424      -2.75054478       0.00000000
