10
Lattice="10.86 0.0 0.0 0.0 10.86 0.0 0.0 0.0 10.86" Properties=species:S:1:pos:R:3:initial_magmoms:R:1 pbc="T T T"
Si       1.07155620       1.07422776       1.60777956       0.00000000
Si       1.07155620      -1.64077224      -1.10722044       0.00000000
Si      -1.64344380       1.07422776      -1.10722044       0.00000000
Si       2.42905620       2.43172776       0.25027956       0.00000000
Si       2.42905620      -0.28327224      -2.46472044       0.00000000
Si      -0.28594380       2.43172776      -2.46472044       0.00000000
Si      -3.10180062       2.23793106       0.02975640       0.00000000
Si      -0.38739792      -2.77930206       2.60250126       0.00000000
Si       2.42905620      -0.28327224       2.96527956       0.00000000
Si       2.42905620      -2.99827224       0.25027956       0.00000000
