10
Lattice="10.86 0.0 0.0 0.0 10.86 0.0 0.0 0.0 10.86" Properties=species:S:1:pos:R:3:initial_magmoms:R:1 pbc="T T T"
Si      -1.35750000       1.35750000      -1.35750000       0.00000000
Si      -1.35750000      -1.35750000       1.35750000       0.00000000
Si       1.35750000      -1.35750000      -1.35750000       0.00000000
Si       1.35750000       1.35750000       1.35750000       0.00000000
Si       2.56958460      -2.48748300       0.11757036       0.00000000
Si       2.56733658      -0.24045126       2.56486050       0.00000000
Si       2.58651534       2.74344234       0.21744978       0.00000000
Si      -2.81645412      -2.49602982      -0.36277830       0.00000000
Si      -2.79075936       0.42553824       2.57200638       0.00000000
Si      -2.71662900       2.69475696       0.25548150       0.00000000
