10
Lattice="16.290000149 0.0 0.0 0.0 16.290000149 0.0 0.0 0.0 29.1751946751" Properties=species:S:1:pos:R:3:initial_magmoms:R:1 pbc="T T T"
Si      -1.34309422       1.35762490      -1.36974621       0.00000000
Si       1.32669182      -1.34848621      -1.39702502       0.00000000
Si       1.34777108       1.37819917       1.35238697       0.00000000
Si      -1.34460919      -1.37147140       1.36265664       0.00000000
Si       2.66551643      -2.70728399      -0.03390158       0.00000000
Si      -2.68742648       2.72282465      -0.01928480       0.00000000
Si      -2.71031393      -2.71063973      -0.01035719       0.00000000
Si      -2.72842841      -0.02759526       2.69791778       0.00000000
Si       2.72031599       0.03652218       2.70903353       0.00000000
Si       2.70713738       2.72859132      -0.00253824       0.00000000
