10
Lattice="16.290000149 0.0 0.0 0.0 16.290000149 0.0 0.0 0.0 29.1751946751" Properties=species:S:1:pos:R:3:initial_magmoms:R:1 pbc="T T T"
Si       0.43883631      -0.24822702       2.28319939       0.00000000
Si      -1.71880679       1.62994483       0.10488482       0.00000000
Si      -0.04917951      -2.29366460      -0.66665320       0.00000000
Si       1.87075991       0.89567308      -1.27594796       0.00000000
H       -0.92152531       0.16589736      -2.54200554       0.00000000
Si       2.15487380      -2.67579542       0.13691919       0.00000000
Si      -0.32185782       3.36831591      -0.80587723       0.00000000
Si       2.07197399      -1.98361703       2.36686684       0.00000000
Si       3.46473642       1.70942375       0.28477908       0.00000000
Si      -3.77794425       0.62077933      -0.61370022       0.00000000
