10
Lattice="16.290000149 0.0 0.0 0.0 16.290000149 0.0 0.0 0.0 29.1751946751" Properties=species:S:1:pos:R:3:initial_magmoms:R:1 pbc="T T T"
Si      -1.23308785       1.45948627      -1.36834581       0.00000000
Si       1.46387806      -1.21223665      -1.38430464       0.00000000
Si       1.58283090       1.41555214       1.06801635       0.00000000
Si      -1.63395217      -1.03552273       1.42958454       0.00000000
H        2.26751915       0.76774771      -0.29099339       0.00000000
H        0.29079442      -2.64176561       1.69787963       0.00000000
H       -0.99812089       1.42995250       2.75089993       0.00000000
Si       0.02695995       2.54078390       2.53301958       0.00000000
Si      -2.57064347       2.52739352       0.24860183       0.00000000
Si      -3.27937251       0.66697777       1.66307362       0.00000000
