10
Lattice="16.290000149 0.0 0.0 0.0 16.290000149 0.0 0.0 0.0 29.1751946751" Properties=species:S:1:pos:R:3:initial_magmoms:R:1 pbc="T T T"
Si       1.36332640      -1.33946155       1.36388200       0.00000000
Si       1.35537688       1.37062432      -1.34643523       0.00000000
Si      -1.35519769       1.35298225       1.36580756       0.00000000
Si      -1.33532389      -1.40436091      -1.33861628       0.00000000
Si       2.70686045      -2.67046859      -0.02304840       0.00000000
Si      -2.76863214      -0.08469171      -2.62156629       0.00000000
Si       0.01174509      -2.73113255       2.69065315       0.00000000
Si      -2.72450252       2.70102863       0.02444881       0.00000000
Si       0.00923643       2.71542899      -2.71206775       0.00000000
Si       2.71283888       2.71854038       0.02132707       0.00000000
