10
Lattice="16.290000149 0.0 0.0 0.0 16.290000149 0.0 0.0 0.0 29.1751946751" Properties=species:S:1:pos:R:3:initial_magmoms:R:1 pbc="T T T"
Si       1.04586688      -1.11402261      -0.02062686       0.00000000
Si      -1.87048298       1.84600236      -0.72535369       0.00000000
Si      -0.33707268       2.56569457       0.88686757       0.00000000
H        1.21707478       2.15800474      -1.73376512       0.00000000
Si      -0.26168256       1.10570331       2.81826546       0.00000000
Si      -1.83528029      -0.58114250       2.37506507       0.00000000
Si       2.91543110      -0.21444645       1.09975896       0.00000000
Si      -1.24431166       0.77340360      -2.77155597       0.00000000
Si       1.32326929      -1.84941675      -2.22840137       0.00000000
Si       0.21291030      -3.04450003       0.99802506       0.00000000
