10
Lattice="16.290000149 0.0 0.0 0.0 16.290000149 0.0 0.0 0.0 29.1751946751" Properties=species:S:1:pos:R:3:initial_magmoms:R:1 pbc="T T T"
Si       1.36570474       1.35790183       1.33035970       0.00000000
Si       1.37127592      -1.35669637      -1.33211021       0.00000000
Si      -1.34338744       1.38368890      -1.34261328       0.00000000
Si      -1.37508778      -1.33503067       1.36262747       0.00000000
Si      -0.07353306       2.69322572       2.61030467       0.00000000
Si      -0.00226431      -2.70387938      -2.67504442       0.00000000
Si      -2.69127092       0.02182860      -2.69327892       0.00000000
Si      -0.02096523      -2.70153362       2.70019344       0.00000000
Si       2.72082098       0.00838935      -2.68858171       0.00000000
Si       2.72034857       2.70951572      -0.03124663       0.00000000
