10
Lattice="16.290000149 0.0 0.0 0.0 16.290000149 0.0 0.0 0.0 29.1751946751" Properties=species:S:1:pos:R:3:initial_magmoms:R:1 pbc="T T T"
Si      -1.39027006      -1.34491870      -1.27543448       0.00000000
Si       1.32990926      -1.40885695       1.31110407       0.00000000
Si      -1.42504921       1.36026388       1.27031715       0.00000000
Si       1.29541339       1.31435866      -1.46927156       0.00000000
Si       2.62666967       2.67460625      -0.09088073       0.00000000
Si       2.66482248      -0.03178179       2.65625560       0.00000000
Si      -0.06861348       2.70995555       2.62462969       0.00000000
Si      -0.13243770      -2.74615194      -2.63982705       0.00000000
Si      -2.74999638      -0.02655270       2.65322138       0.00000000
Si       2.68037454      -2.73553085      -0.09566546       0.00000000
