10
Lattice="16.290000149 0.0 0.0 0.0 16.290000149 0.0 0.0 0.0 29.1751946751" Properties=species:S:1:pos:R:3:initial_magmoms:R:1 pbc="T T T"
Si      -1.28633986      -1.44263704       1.28090775       0.00000000
Si       1.30378645      -1.41223990      -1.33809113       0.00000000
Si      -1.43816266       1.62317357      -0.92820882       0.00000000
Si       1.18931662       1.15004192       1.69230717       0.00000000
Si      -0.80580115       2.03327432       2.66836330       0.00000000
Si      -2.31819734       0.18099705       2.59752593       0.00000000
Si      -0.09037692       2.64284613      -2.56169879       0.00000000
Si       2.62592962       2.57535666       0.34803090       0.00000000
Si       1.76177981      -0.58954602       3.21151790       0.00000000
Si       0.24118974      -2.44131179       2.78570594       0.00000000
