10
Lattice="16.290000149 0.0 0.0 0.0 16.290000149 0.0 0.0 0.0 29.1751946751" Properties=species:S:1:pos:R:3:initial_magmoms:R:1 pbc="T T T"
Si      -0.35665326       0.88013242       2.13629528       0.00000000
Si      -1.84529864      -0.93587680      -1.11720573       0.00000000
Si       1.05116113       1.76010194      -1.18331672       0.00000000
Si       1.59547519      -1.78220747      -0.08936362       0.00000000
Si       2.13262166       0.33620931      -2.67898308       0.00000000
Si      -0.67150639      -2.39203991      -2.52703866       0.00000000
Si       1.26713395       2.56448585       2.20853306       0.00000000
Si       2.21912156      -2.18468450       2.05962287       0.00000000
Si       3.42720426      -0.95843845      -1.25182008       0.00000000
Si      -3.15169149      -2.15112710       0.39173534       0.00000000
