10
Lattice="16.290000149 0.0 0.0 0.0 16.290000149 0.0 0.0 0.0 29.1751946751" Properties=species:S:1:pos:R:3:initial_magmoms:R:1 pbc="T T T"
Si      -1.30639285      -1.21525030       1.50894107       0.00000000
Si      -1.43299873       1.37073835      -1.24090856       0.00000000
Si       1.17379225      -1.45616311      -1.40983293       0.00000000
Si       1.84529864       0.93587680       1.11720573       0.00000000
Si       3.44077383      -0.84633067       1.02784211       0.00000000
Si      -0.06125040       2.69267186      -2.60624932       0.00000000
Si       2.56254734      -2.73600327      -0.04137043       0.00000000
Si       2.55378332      -0.11539836      -2.74594015       0.00000000
Si       0.12681765      -2.58146003       2.79413757       0.00000000
Si      -2.79164991      -0.01024641      -2.59031966       0.00000000
