10
Lattice="16.290000149 0.0 0.0 0.0 16.290000149 0.0 0.0 0.0 29.1751946751" Properties=species:S:1:pos:R:3:initial_magmoms:R:1 pbc="T T T"
Si       0.85291183      -1.87536998      -1.11078719       0.00000000
Si       1.48794490       1.25040412       1.37511445       0.00000000
Si      -1.38906460       1.31675329      -1.42917609       0.00000000
Si      -1.31224096      -1.36738261       1.48560091       0.00000000
H        1.38515500      -1.62098533      -2.49859285       0.00000000
H        2.65170251       0.13836726      -2.07949118       0.00000000
Si       0.00609246       2.54897957       2.71451846       0.00000000
H       -0.20220777      -0.76406617      -3.65468911       0.00000000
Si      -2.79782382       2.49461804       0.04116620       0.00000000
Si       2.54187533      -2.80639236       0.19809957       0.00000000
