10
Lattice="16.290000149 0.0 0.0 0.0 16.290000149 0.0 0.0 0.0 29.1751946751" Properties=species:S:1:pos:R:3:initial_magmoms:R:1 pbc="T T T"
Si      -1.88827166      -1.33907059      -0.38896370       0.00000000
Si       0.52435881       1.25303659      -1.93236067       0.00000000
H       -0.90109765      -0.98997589       2.06615811       0.00000000
Si       1.93303658      -1.49294593       0.31418767       0.00000000
Si      -1.61836264       1.53067520       1.07522262       0.00000000
H       -2.80311807      -1.41239188       0.82256544       0.00000000
Si       0.19238490       2.85671217       1.68075379       0.00000000
Si      -2.77610925       0.08392608      -1.97942026       0.00000000
Si      -0.01588275      -1.83883151       2.95585567       0.00000000
Si       1.55621629      -0.37059750      -3.24897885       0.00000000
