10
Lattice="16.290000149 0.0 0.0 0.0 16.290000149 0.0 0.0 0.0 29.1751946751" Properties=species:S:1:pos:R:3:initial_magmoms:R:1 pbc="T T T"
Si       1.42413697       1.38748447       1.18416280       0.00000000
Si       1.43244487      -1.32401863      -1.27991579       0.00000000
Si      -1.32426298       1.43995456      -1.27233024       0.00000000
Si      -1.37999107      -1.34076475       1.33610722       0.00000000
Si       0.05209542      -2.66400146      -2.60940024       0.00000000
Si      -2.67250484       0.07802910      -2.62069104       0.00000000
Si      -2.55378332       0.11539836       2.74594015       0.00000000
Si       0.00876402      -2.62060490       2.70456972       0.00000000
Si       2.71871957       0.09283671       2.61132580       0.00000000
Si       0.06475275       2.79925734      -2.58512647       0.00000000
