10
Lattice="16.290000149 0.0 0.0 0.0 16.290000149 0.0 0.0 0.0 29.1751946751" Properties=species:S:1:pos:R:3:initial_magmoms:R:1 pbc="T T T"
Si       1.36000324      -1.35300995       1.35267873       0.00000000
Si      -1.36283770       1.36248421       1.34558915       0.00000000
Si       1.34978941       1.38796177      -1.33523196       0.00000000
Si      -1.34669431      -1.38775652      -1.33954989       0.00000000
Si      -2.78067045      -0.04130981      -2.60137706       0.00000000
Si       0.00045612      -2.71653183       2.69529201       0.00000000
Si       2.79256215       0.05627706      -2.61797774       0.00000000
Si      -0.00353493       2.70650696       2.70885848       0.00000000
Si      -0.02756268       2.72783057      -2.69418335       0.00000000
Si      -2.72704376       0.01509431       2.69619644       0.00000000
