10
Lattice="16.290000149 0.0 0.0 0.0 16.290000149 0.0 0.0 0.0 29.1751946751" Properties=species:S:1:pos:R:3:initial_magmoms:R:1 pbc="T T T"
Si      -0.74489284       1.31790988      -1.79156118       0.00000000
Si       1.99511777      -0.88323241      -0.97605614       0.00000000
Si      -1.51239619      -1.85227727      -0.07083737       0.00000000
Si      -0.62617132       1.07259877       2.04620228       0.00000000
H        2.46138644       1.38460114       1.03779085       0.00000000
H        1.24431166      -0.77340360       2.77155597       0.00000000
Si      -2.49694751       2.29516328      -0.52874205       0.00000000
Si       0.80580115      -2.03327432      -2.66836330       0.00000000
Si      -0.63236152      -0.41010075      -3.59657212       0.00000000
Si       2.56758095      -2.62282034       0.54315460       0.00000000
