10
Lattice="16.290000149 0.0 0.0 0.0 16.290000149 0.0 0.0 0.0 29.1751946751" Properties=species:S:1:pos:R:3:initial_magmoms:R:1 pbc="T T T"
Si       1.34778574       1.01967256      -1.63348997       0.00000000
Si       1.43816266      -1.62317357       0.92820882       0.00000000
Si      -1.83480788      -1.18155769      -1.00491041       0.00000000
Si      -0.11253132       1.72801064       1.80501094       0.00000000
H       -2.25225542       1.48620187       0.49475295       0.00000000
Si       2.77358430       2.29097675      -0.23071744       0.00000000
Si       0.63236152       0.41010075       3.59657212       0.00000000
Si       2.62747928      -0.47313165       2.62051599       0.00000000
Si      -2.89637832       2.32766183      -0.58519605       0.00000000
Si       0.15182280      -3.06581061       2.20911657       0.00000000
