10
Lattice="16.290000149 0.0 0.0 0.0 16.290000149 0.0 0.0 0.0 29.1751946751" Properties=species:S:1:pos:R:3:initial_magmoms:R:1 pbc="T T T"
Si       1.35885317      -1.33938010       1.38089697       0.00000000
Si      -1.50704656      -1.38492694      -1.16663055       0.00000000
Si      -1.40033077       1.34949619       1.36901683       0.00000000
Si       1.48746272       1.19980738      -1.43535248       0.00000000
Si      -2.64726512       0.11613141      -2.54993244       0.00000000
Si      -0.24434512      -2.81403237      -2.49169875       0.00000000
Si       2.66115723       2.66766671       0.01439796       0.00000000
Si       0.13110192       2.60815934      -2.74957829       0.00000000
Si      -0.01536962      -2.70039332       2.74262293       0.00000000
Si       2.67907623       0.00174303       2.77518245       0.00000000
