10
Lattice="16.290000149 0.0 0.0 0.0 16.290000149 0.0 0.0 0.0 29.1751946751" Properties=species:S:1:pos:R:3:initial_magmoms:R:1 pbc="T T T"
Si       1.83228293       1.02195316      -0.94255718       0.00000000
Si       1.40628313      -1.36399429       1.25407532       0.00000000
Si      -1.32041854       1.48885200       1.20844823       0.00000000
Si      -1.30422628      -1.18407124      -1.55312748       0.00000000
Si       0.99823492       2.26618337      -2.65606013       0.00000000
Si      -2.67020795       0.09376524       2.51918178       0.00000000
Si      -2.62578512      -2.58734072      -0.21039400       0.00000000
Si       0.05053158      -2.70431921       2.56959652       0.00000000
Si       2.74457181      -2.51807564      -0.30277142       0.00000000
Si       2.82840015       0.09580149       2.47909506       0.00000000
