10
Lattice="16.290000149 0.0 0.0 0.0 16.290000149 0.0 0.0 0.0 29.1751946751" Properties=species:S:1:pos:R:3:initial_magmoms:R:1 pbc="T T T"
Si      -1.33491322      -1.37707516      -1.34515153       0.00000000
Si       1.34305513      -1.35790183       1.36353190       0.00000000
Si       1.33113085       1.35757603      -1.38331268       0.00000000
Si      -1.38833807       1.36104580       1.32321178       0.00000000
Si      -2.66482248       0.03178179      -2.65625560       0.00000000
Si      -0.03647820       2.71393031       2.68452636       0.00000000
Si       2.69118296       2.71202438      -0.02970035       0.00000000
Si       2.69093861       0.00395847       2.71419754       0.00000000
Si       2.70216242      -2.71340903       0.00942359       0.00000000
Si      -2.72009445      -2.70857090       0.02278583       0.00000000
