10
Lattice="16.290000149 0.0 0.0 0.0 16.290000149 0.0 0.0 0.0 29.1751946751" Properties=species:S:1:pos:R:3:initial_magmoms:R:1 pbc="T T T"
Si       1.35936630       1.35039214      -1.35492522       0.00000000
Si       1.37254491      -1.34167699       1.35664655       0.00000000
Si      -1.33853183       1.36443412       1.37184683       0.00000000
Si      -1.34777108      -1.37819917      -1.35238697       0.00000000
Si      -2.69039289      -0.04512330       2.67682411       0.00000000
Si       2.66908232      -2.69822675      -0.06447718       0.00000000
Si      -0.02903367       2.69873174      -2.68668533       0.00000000
Si      -2.69086530      -0.02057427      -2.72213319       0.00000000
Si       2.67769973      -0.01158219      -2.74678623       0.00000000
Si       2.73119609       0.03930777       2.70605766       0.00000000
