10
Lattice="16.290000149 0.0 0.0 0.0 16.290000149 0.0 0.0 0.0 29.1751946751" Properties=species:S:1:pos:R:3:initial_magmoms:R:1 pbc="T T T"
Si      -1.36005211      -1.35444835      -1.35361233       0.00000000
Si      -1.36879984       1.35371530       1.35174512       0.00000000
Si       1.34827444      -1.36070371       1.36551581       0.00000000
Si       1.35524656       1.34384356      -1.37598971       0.00000000
Si       2.68996772       2.69514794       0.01835120       0.00000000
Si      -2.69118296      -2.71202438       0.02970035       0.00000000
Si       0.01881495      -2.71363709      -2.68966120       0.00000000
Si       2.71362080      -0.00540828       2.71241785       0.00000000
Si      -0.02125845       2.69105915      -2.73546625       0.00000000
Si      -2.71973933       2.71254566      -0.00828576       0.00000000
