10
Lattice="16.290000149 0.0 0.0 0.0 16.290000149 0.0 0.0 0.0 29.1751946751" Properties=species:S:1:pos:R:3:initial_magmoms:R:1 pbc="T T T"
Si      -1.34788348      -1.36186030      -1.35066564       0.00000000
Si       1.34338744      -1.38368890       1.34261328       0.00000000
Si      -1.38859219       1.35117406       1.33345227       0.00000000
Si       1.34851879       1.34736220      -1.37838207       0.00000000
Si       2.70909218      -0.02578707       2.67297299       0.00000000
Si      -0.03725523       2.73843047       2.65526364       0.00000000
Si      -2.69093861      -0.00395847      -2.71419754       0.00000000
Si       2.71386515       2.70265763      -0.03148004       0.00000000
Si       0.01122381      -2.71736750      -2.70477395       0.00000000
Si      -0.03170034      -2.71871957       2.70524075       0.00000000
