10
Lattice="16.290000149 0.0 0.0 0.0 16.290000149 0.0 0.0 0.0 29.1751946751" Properties=species:S:1:pos:R:3:initial_magmoms:R:1 pbc="T T T"
Si       1.30961827      -1.42602661      -1.29824015       0.00000000
Si       1.41343444       1.29533194       1.34415432       0.00000000
Si      -1.29924154      -1.48484980       1.27414260       0.00000000
Si      -1.28018224       1.49612248      -1.33783089       0.00000000
Si       2.57393405       0.05711274      -2.62533223       0.00000000
Si      -2.68364720      -0.11386710       2.62564849       0.00000000
Si       0.03181437       2.65176767       2.66883653       0.00000000
Si      -2.64099998       0.15128523      -2.67930634       0.00000000
Si      -0.06902073      -2.45498447      -2.92843332       0.00000000
Si      -2.72445366       2.68890887       0.02057697       0.00000000
