10
Lattice="16.290000149 0.0 0.0 0.0 16.290000149 0.0 0.0 0.0 29.1751946751" Properties=species:S:1:pos:R:3:initial_magmoms:R:1 pbc="T T T"
Si      -1.47666734       1.15196365      -1.37645651       0.00000000
Si       0.62182189       1.85267801       1.31953570       0.00000000
H       -0.58611421      -2.28227789      -0.16749479       0.00000000
Si       1.45769437      -1.39041667      -1.25094482       0.00000000
Si      -1.27080246      -1.63447345       1.19151495       0.00000000
Si      -0.00819387       2.53026056      -2.59472511       0.00000000
Si      -2.81654103       2.45055359       0.04904350       0.00000000
Si       0.23193702      -2.65764836       2.67017217       0.00000000
Si      -0.00236205      -2.81707860      -2.54679027       0.00000000
Si      -1.05386527       3.47247417       1.20429369       0.00000000
