10
Lattice="16.290000149 0.0 0.0 0.0 16.290000149 0.0 0.0 0.0 29.1751946751" Properties=species:S:1:pos:R:3:initial_magmoms:R:1 pbc="T T T"
Si      -1.41343444      -1.29533194      -1.34415432       0.00000000
Si      -1.38162007       1.35643573       1.32468221       0.00000000
Si       1.32155884       1.40326948      -1.34273349       0.00000000
Si       1.37171575      -1.41200092       1.30410786       0.00000000
Si       2.62578512       2.58734072       0.21039400       0.00000000
Si       2.66422952       0.04808808      -2.68580715       0.00000000
Si      -0.10381617      -2.72135855      -2.64239446       0.00000000
Si      -2.73483039      -0.04140918       2.64496772       0.00000000
Si      -2.69361668       0.20079054      -2.68198520       0.00000000
Si      -0.04442283       2.68110596       2.72957578       0.00000000
