10
Lattice="16.290000149 0.0 0.0 0.0 16.290000149 0.0 0.0 0.0 29.1751946751" Properties=species:S:1:pos:R:3:initial_magmoms:R:1 pbc="T T T"
Si      -0.97997383       1.85850983      -0.89605775       0.00000000
Si      -1.76365316      -1.48509415       0.33221794       0.00000000
Si       0.38529108       0.64697365       2.22285808       0.00000000
Si       1.75205468      -0.97725340      -1.26281913       0.00000000
H       -0.38766942      -1.21906216      -2.57307712       0.00000000
Si       1.87077620      -1.22256451       2.57494433       0.00000000
Si       2.49694751      -2.29516328       0.52874205       0.00000000
Si      -2.46529604       0.84903481      -2.36899663       0.00000000
Si      -1.07101864      -3.53315768      -0.43421442       0.00000000
Si      -3.58016736      -0.59517145      -0.81807246       0.00000000
