10
Lattice="16.290000149 0.0 0.0 0.0 16.290000149 0.0 0.0 0.0 29.1751946751" Properties=species:S:1:pos:R:3:initial_magmoms:R:1 pbc="T T T"
Si       1.40875921      -1.17786475      -1.47034229       0.00000000
Si      -1.31635256      -1.43005024       1.34331349       0.00000000
Si      -1.84085798       1.17360492      -0.93343118       0.00000000
Si       1.44720361       1.44098083       1.27486848       0.00000000
H        0.80474230       2.59892291      -1.44811079       0.00000000
Si      -0.47778570       2.55868661      -2.26557057       0.00000000
Si      -2.77206933       1.98817823       1.06171451       0.00000000
Si      -2.48640072       0.16237579       2.63107741       0.00000000
Si      -0.13354542      -2.48938895      -2.65809364       0.00000000
Si       2.79782382      -2.49461804      -0.04116620       0.00000000
