10
Lattice="16.290000149 0.0 0.0 0.0 16.290000149 0.0 0.0 0.0 29.1751946751" Properties=species:S:1:pos:R:3:initial_magmoms:R:1 pbc="T T T"
Si       1.29790576       1.28351990       1.50608482       0.00000000
Si      -1.33519357      -1.36472913       1.40862508       0.00000000
Si       1.48185244      -1.29857544      -1.33940401       0.00000000
Si      -1.35671266       1.38661931      -1.39848378       0.00000000
Si      -0.00609246      -2.54897957      -2.71451846       0.00000000
Si      -2.60791499       2.72847549       0.08875911       0.00000000
Si       2.69684210      -2.71388324       0.11033417       0.00000000
Si       2.28665990       3.07059808       0.35322408       0.00000000
Si       2.36955971       2.37841968      -1.87672357       0.00000000
Si       0.16550640       2.76055050      -2.68029596       0.00000000
