10
Lattice="16.290000149 0.0 0.0 0.0 16.290000149 0.0 0.0 0.0 29.1751946751" Properties=species:S:1:pos:R:3:initial_magmoms:R:1 pbc="T T T"
Si       0.08289981      -0.69217840      -2.22994765       0.00000000
Si      -0.98875414      -1.78707818       1.15286074       0.00000000
Si       1.83888038       0.88150078       1.18642388       0.00000000
Si      -1.63313767       1.73539001      -0.08366746       0.00000000
H        2.53399097      -0.94662820      -0.73541913       0.00000000
Si      -2.30410649      -0.46403694       2.55373397       0.00000000
Si       0.55154683       2.33031710       2.51488719       0.00000000
Si      -2.12115350      -0.31004757      -3.03352004       0.00000000
Si      -2.07197399       1.98361703      -2.36686684       0.00000000
Si       2.02214288       0.33524820      -3.13172375       0.00000000
