10
Lattice="16.290000149 0.0 0.0 0.0 16.290000149 0.0 0.0 0.0 29.1751946751" Properties=species:S:1:pos:R:3:initial_magmoms:R:1 pbc="T T T"
H       -1.18130194       0.51823377      -0.80450599       0.00000000
Si       1.33755562      -1.06790725      -1.61694764       0.00000000
H       -1.75461221       0.63358327       1.52729227       0.00000000
Si       1.31253418       1.66477286       1.16607418       0.00000000
Si      -0.70872904      -1.86041576       1.41447179       0.00000000
H       -0.55271971       2.17494308      -1.90686155       0.00000000
H        1.57252258      -1.09744102       2.50229810       0.00000000
Si      -3.06698349       1.09512784       0.92254883       0.00000000
H       -1.98923708       1.25926588      -2.45267109       0.00000000
Si       2.59760342       0.01339038       2.28441774       0.00000000
