10
Lattice="16.290000149 0.0 0.0 0.0 16.290000149 0.0 0.0 0.0 29.1751946751" Properties=species:S:1:pos:R:3:initial_magmoms:R:1 pbc="T T T"
Si       1.34205166       1.33380892      -1.37143838       0.00000000
Si      -1.43646850       1.37101528       1.23303125       0.00000000
Si       1.34042266      -1.34723188       1.38237907       0.00000000
Si      -1.38557854      -1.34982199      -1.33791608       0.00000000
Si      -0.16159680      -2.70586676       2.54562326       0.00000000
Si       2.70317891       2.64036467       0.01922645       0.00000000
Si      -0.01464471      -2.73654084      -2.64922438       0.00000000
Si       2.71362080      -0.02542869      -2.69371655       0.00000000
Si      -2.81751843       0.05546745       2.58783977       0.00000000
Si      -0.01278765       2.66760155      -2.75145426       0.00000000
