10
Lattice="16.290000149 0.0 0.0 0.0 16.290000149 0.0 0.0 0.0 29.1751946751" Properties=species:S:1:pos:R:3:initial_magmoms:R:1 pbc="T T T"
Si      -1.22639266       1.85432330       0.66420248       0.00000000
Si      -1.53341029      -0.71969221      -1.61222126       0.00000000
Si       1.62116452       0.67091995      -1.56221497       0.00000000
Si       0.07539012      -1.45999126       1.93139789       0.00000000
H        0.33707268      -2.56569457      -0.88686757       0.00000000
H        0.06934653       2.40213971       1.58850182       0.00000000
H        1.55414746      -0.40768983      -2.62063269       0.00000000
Si      -2.75160909      -2.04089267      -0.11614645       0.00000000
H       -0.26772615       3.10805058      -1.99424126       0.00000000
Si       2.32129244      -1.96556771       2.20803708       0.00000000
