10
Lattice="16.290000149 0.0 0.0 0.0 16.290000149 0.0 0.0 0.0 29.1751946751" Properties=species:S:1:pos:R:3:initial_magmoms:R:1 pbc="T T T"
Si      -1.37844352      -1.36394542      -1.30491893       0.00000000
Si      -1.38515500       1.31439124       1.35854294       0.00000000
Si       1.32910111      -1.36666585       1.37601888       0.00000000
Si       1.32494716       1.38681658      -1.38290423       0.00000000
Si      -2.69555519       0.02744865      -2.64656943       0.00000000
Si      -0.01373247       2.67584429       2.68510987       0.00000000
Si      -0.05119947      -2.72287352      -2.67107660       0.00000000
Si       2.68786631      -0.00118917       2.70693291       0.00000000
Si       2.74999638       0.02655270      -2.65322138       0.00000000
Si       2.69472440      -2.71379999       0.02582005       0.00000000
