10
Lattice="16.290000149 0.0 0.0 0.0 16.290000149 0.0 0.0 0.0 29.1751946751" Properties=species:S:1:pos:R:3:initial_magmoms:R:1 pbc="T T T"
Si      -0.68468825       0.64780444       1.35900974       0.00000000
Si       0.58611421       2.28227789       0.16749479       0.00000000
Si      -0.80364109      -1.97998436      -1.09331125       0.00000000
Si      -2.26751915      -0.76774771       0.29099339       0.00000000
Si       2.04380858       0.89186122      -1.08345003       0.00000000
Si       0.58375216      -0.53480070      -2.37929548       0.00000000
Si       0.81805123      -0.37537047       2.83766696       0.00000000
Si       0.64234729      -3.16977339       0.30021275       0.00000000
Si       2.17694675      -1.84261079       1.59165275       0.00000000
Si       3.47701908      -0.47434851       0.20174647       0.00000000
