10
Lattice="16.290000149 0.0 0.0 0.0 16.290000149 0.0 0.0 0.0 29.1751946751" Properties=species:S:1:pos:R:3:initial_magmoms:R:1 pbc="T T T"
Si       1.34622190       1.33003290      -1.34684369       0.00000000
Si      -1.35620767       1.39504629       1.28942690       0.00000000
Si       1.37057545      -1.36078190       1.31337974       0.00000000
Si      -1.30137553      -1.32732224      -1.42534538       0.00000000
Si      -2.68070523       0.01114073       2.65114994       0.00000000
Si      -0.01692531      -2.71993807       2.61754012       0.00000000
Si       0.03635928       2.73841744       2.61882382       0.00000000
Si       2.72619669       0.01083937       2.65170427       0.00000000
Si      -2.58045168       0.04508746      -2.81317730       0.00000000
Si      -2.65025108       2.74807741      -0.14252083       0.00000000
