10
Lattice="16.290000149 0.0 0.0 0.0 16.290000149 0.0 0.0 0.0 29.1751946751" Properties=species:S:1:pos:R:3:initial_magmoms:R:1 pbc="T T T"
Si       1.25786494      -0.24632109      -1.93895426       0.00000000
Si      -0.33565545       2.12118608       0.93205994       0.00000000
Si       1.22639266      -1.32136336       1.51465941       0.00000000
Si      -2.06324255      -0.69296032      -0.90276805       0.00000000
H        2.57023622      -0.70786567      -1.33421083       0.00000000
H       -2.51704937       0.28851219       1.72448741       0.00000000
H        0.36838206      -3.06445854      -0.23976175       0.00000000
H       -1.25050186       2.04786479       2.14358908       0.00000000
H       -3.19828089      -0.64316179       0.09887473       0.00000000
Si       0.28763253      -2.24279093      -2.81666082       0.00000000
