10
Lattice="16.290000149 0.0 0.0 0.0 16.290000149 0.0 0.0 0.0 29.1751946751" Properties=species:S:1:pos:R:3:initial_magmoms:R:1 pbc="T T T"
Si      -1.23681826       1.36554184       1.41861467       0.00000000
Si       1.32421411      -1.37479456       1.33459011       0.00000000
Si       1.35186106       1.40955742      -1.30497728       0.00000000
Si      -1.38580660      -1.36067113      -1.33129331       0.00000000
H       -1.88649605       0.54117009       2.49526688       0.00000000
Si       2.61383315       0.04082274       2.65357148       0.00000000
Si      -2.81460252       2.45071649       0.09508196       0.00000000
Si      -0.08716779       2.75778300      -2.59320800       0.00000000
Si       2.69039289       0.04512330      -2.67682411       0.00000000
Si      -0.00198738      -2.70454727      -2.66655444       0.00000000
