10
Lattice="16.290000149 0.0 0.0 0.0 16.290000149 0.0 0.0 0.0 29.1751946751" Properties=species:S:1:pos:R:3:initial_magmoms:R:1 pbc="T T T"
Si      -1.39256695      -1.34337115      -1.32939692       0.00000000
Si      -1.35910729       1.35550720       1.35410831       0.00000000
Si       1.32989932      -1.37020078       1.37234281       0.00000000
Si       1.36024759       1.34433226      -1.37254703       0.00000000
Si      -0.03635928      -2.73841744      -2.61882382       0.00000000
Si       2.70705593       2.70127298      -0.01006544       0.00000000
Si      -2.70216242       2.71340903      -0.00942359       0.00000000
Si       2.68983740      -2.72757808       0.03288044       0.00000000
Si       2.70343955      -0.02301777       2.71527702       0.00000000
Si      -0.01122381       2.71736750       2.70477395       0.00000000
