10
Lattice="16.290000149 0.0 0.0 0.0 16.290000149 0.0 0.0 0.0 29.1751946751" Properties=species:S:1:pos:R:3:initial_magmoms:R:1 pbc="T T T"
Si      -1.37036531      -1.37194218      -1.32919269       0.00000000
Si       1.34781669       1.35594866      -1.37345146       0.00000000
Si       1.40649327      -1.33449147       1.33564041       0.00000000
Si      -1.39901942       1.33470650       1.34628936       0.00000000
Si      -0.01562863       2.69412330       2.67460680       0.00000000
Si       0.07080286      -2.68496507       2.70614518       0.00000000
Si      -2.70246378      -0.00411974      -2.69963911       0.00000000
Si      -0.00000489      -2.71146890      -2.70830415       0.00000000
Si      -2.70171444       2.72017101      -0.02485727       0.00000000
Si       2.70366599       2.72442270      -0.03611889       0.00000000
