10
Lattice="16.290000149 0.0 0.0 0.0 16.290000149 0.0 0.0 0.0 29.1751946751" Properties=species:S:1:pos:R:3:initial_magmoms:R:1 pbc="T T T"
Si       0.90111394      -0.74319868      -0.97684387       0.00000000
Si      -1.07965234       1.71279578       0.78924707       0.00000000
Si      -1.91343971      -0.28492839       1.88056303       0.00000000
Si      -1.32857983       2.22627287      -1.50937870       0.00000000
Si       2.30319507      -1.91350487       0.48427906       0.00000000
Si      -0.68968603      -1.87256810      -2.31980725       0.00000000
Si       2.05374548       0.89238250      -2.16301976       0.00000000
Si       0.86242519       2.56484423       1.85146077       0.00000000
Si      -0.48641940      -1.65196892       3.21522024       0.00000000
Si      -3.22124979      -1.73178992       0.51030333       0.00000000
