10
Lattice="16.290000149 0.0 0.0 0.0 16.290000149 0.0 0.0 0.0 29.1751946751" Properties=species:S:1:pos:R:3:initial_magmoms:R:1 pbc="T T T"
Si      -1.33882461       1.35879778      -1.36312345       0.00000000
Si       1.35133696       1.38725641       1.32181137       0.00000000
Si       1.38859219      -1.35117406      -1.33345227       0.00000000
Si      -1.35131579      -1.36634005       1.36216066       0.00000000
Si       2.65844657      -0.04163724       2.61946568       0.00000000
Si      -2.66551643       2.70728399       0.03390158       0.00000000
Si       0.04070871      -2.71303436      -2.68411791       0.00000000
Si      -2.69068448       0.00591327      -2.72443803       0.00000000
Si      -2.69356781      -2.72746730       0.00884008       0.00000000
Si       0.02003670       2.71060715      -2.72560504       0.00000000
