10
Lattice="10.86 0.0 0.0 0.0 10.86 0.0 0.0 0.0 10.86" Properties=species:S:1:pos:R:3:initial_magmoms:R:1 pbc="T T T"
Si       0.86973396       1.76846412       0.95527818       0.00000000
Si       1.15348404      -1.22485596      -1.44269670       0.00000000
Si      -1.56151596      -1.22485596       1.27230330       0.00000000
Si      -1.56151596       1.49014404      -1.44269670       0.00000000
Si       2.54430252      -2.46669696      -0.27656076       0.00000000
Si       2.51098404       0.13264404      -2.80019670       0.00000000
Si      -0.20401596      -2.58235596      -2.80019670       0.00000000
Si      -2.91901596      -2.58235596      -0.08519670       0.00000000
Si      -2.91901596       0.13264404       2.62980330       0.00000000
Si      -0.21567960       2.94286452       2.67859728       0.00000000
