10
Lattice="16.28999089631971 0.0 0.0 0.0 16.28999089631971 0.0 0.0 0.0 34.53561885213415" Properties=species:S:1:pos:R:3:initial_magmoms:R:1 pbc="T T T"
Si      -1.35720647      -1.35494030       1.37764042       0.00000000
Si       1.36739607       1.35946566       1.37522293       0.00000000
Si       1.26461106      -1.56747267      -1.28903233       0.00000000
Si      -1.46283083       1.36523232      -1.35061628       0.00000000
Si      -2.68941896      -2.70055447      -0.00869607       0.00000000
Si      -2.70482930       2.70615996       0.05469064       0.00000000
Si       2.71394865       2.70226665      -0.01243283       0.00000000
Si      -2.70893438       0.00091224       2.73699767       0.00000000
Si       2.72321766      -2.72495968       0.04897844       0.00000000
Si       0.00709508      -2.71323823       2.73599614       0.00000000
