10
Lattice="16.28999089631971 0.0 0.0 0.0 16.28999089631971 0.0 0.0 0.0 34.53561885213415" Properties=species:S:1:pos:R:3:initial_magmoms:R:1 pbc="T T T"
Si      -2.19232726      -0.40016385      -0.77080091       0.00000000
Si       1.52539560      -1.58972481      -0.89619981       0.00000000
Si       0.26925741       2.38857731       0.02514194       0.00000000
Si      -0.06255360      -0.68080797       2.30628992       0.00000000
Si      -2.75472764      -2.28273399       0.53557868       0.00000000
Si       2.86104528      -0.22747356      -2.22948266       0.00000000
Si      -3.42457244       1.35896949       0.19733664       0.00000000
Si       1.49405364       2.74081598       2.02340850       0.00000000
Si      -1.95059066       3.19371056       0.05304674       0.00000000
Si       2.88342774      -2.25616500       0.96644530       0.00000000
