10
Lattice="16.28999089631971 0.0 0.0 0.0 16.28999089631971 0.0 0.0 0.0 34.53561885213415" Properties=species:S:1:pos:R:3:initial_magmoms:R:1 pbc="T T T"
Si      -1.35689184      -1.35596005       1.35735419       0.00000000
Si       1.35747828      -1.35663120      -1.35697429       0.00000000
Si       1.35834165       1.35682668       1.35759594       0.00000000
Si      -1.35767376       1.35816246      -1.35697429       0.00000000
Si      -0.00016290      -2.71129302       2.71608980       0.00000000
Si      -0.00122175       2.71321353      -2.71443209       0.00000000
Si       2.71438641       0.00128691      -2.71356870       0.00000000
Si       2.71420722      -2.71396183       0.00003454       0.00000000
Si       2.71474479      -0.00060273       2.71377591       0.00000000
Si      -2.71476108      -2.71399970       0.00037989       0.00000000
