10
Lattice="16.28999089631971 0.0 0.0 0.0 16.28999089631971 0.0 0.0 0.0 34.53561885213415" Properties=species:S:1:pos:R:3:initial_magmoms:R:1 pbc="T T T"
Si       0.82938906       1.84270851      -1.26987541       0.00000000
Si      -1.88126694      -0.93157623      -1.22297602       0.00000000
Si      -0.69188517       1.17737604       2.02561878       0.00000000
Si       1.74441465      -1.80576279       0.29137718       0.00000000
Si       2.12530743       0.43666974      -2.64660409       0.00000000
Si      -0.58686354      -2.28797937      -2.64090571       0.00000000
Si      -1.31386995      -0.75981447       3.46482243       0.00000000
Si       3.52831626      -0.83785986      -1.18947645       0.00000000
Si       1.30737024       1.85549616       3.09473853       0.00000000
Si       0.75569310      -3.59989045      -1.13705135       0.00000000
