10
Lattice="16.28999089631971 0.0 0.0 0.0 16.28999089631971 0.0 0.0 0.0 34.53561885213415" Properties=species:S:1:pos:R:3:initial_magmoms:R:1 pbc="T T T"
Si      -1.41035562       1.03491999       1.53766475       0.00000000
Si       1.92067245      -0.68737284       1.24273040       0.00000000
Si       0.62198478       1.93719051      -1.43920365       0.00000000
Si      -1.79657523      -1.41182987      -1.03220115       0.00000000
Si      -2.16916011      -2.71948762       0.93612301       0.00000000
Si      -1.02237669      -1.92769996       2.89094373       0.00000000
Si       3.40555482      -1.39020652      -0.53664928       0.00000000
Si       2.62124019       2.61531063      -0.37008390       0.00000000
Si       2.27152647       1.08224244       2.78519561       0.00000000
Si       1.31386995       0.75981447      -3.46482243       0.00000000
