10
Lattice="16.28999089631971 0.0 0.0 0.0 16.28999089631971 0.0 0.0 0.0 34.53561885213415" Properties=species:S:1:pos:R:3:initial_magmoms:R:1 pbc="T T T"
Si      -0.62253864       1.38890169      -1.76425308       0.00000000
Si       0.68579271      -1.87767011      -1.21582714       0.00000000
Si       2.04367824       0.53387217       1.01431169       0.00000000
Si      -1.86263118      -0.65269143       1.29101123       0.00000000
Si       3.52523745       0.18841014      -0.80879011       0.00000000
Si      -2.37423492      -2.75941916       0.39315370       0.00000000
Si      -1.17354789       3.41374869      -0.73367510       0.00000000
Si      -0.37374147      -3.73605353      -0.24095515       0.00000000
Si       2.13188859      -0.87754067       2.98004568       0.00000000
Si      -0.82297080       2.17406340       3.03298881       0.00000000
