10
Lattice="16.28999089631971 0.0 0.0 0.0 16.28999089631971 0.0 0.0 0.0 34.53561885213415" Properties=species:S:1:pos:R:3:initial_magmoms:R:1 pbc="T T T"
Si       1.35645201       1.35505107      -1.35745779       0.00000000
Si       1.35767376      -1.35816246       1.35697429       0.00000000
Si      -1.35782037       1.35757602       1.35745779       0.00000000
Si      -1.35881406      -1.35910728      -1.35721604       0.00000000
Si       0.00128691      -2.71183214      -2.71481198       0.00000000
Si       0.00078192      -2.71412251       2.71432848       0.00000000
Si      -2.71070976       0.00110772      -2.71812740       0.00000000
Si       2.71678104      -0.00267156      -2.71277438       0.00000000
Si       2.71515204      -2.71479366       0.00000000       0.00000000
Si       2.71482624       2.71518462      -0.00037989       0.00000000
