10
Lattice="16.28999089631971 0.0 0.0 0.0 16.28999089631971 0.0 0.0 0.0 34.53561885213415" Properties=species:S:1:pos:R:3:initial_magmoms:R:1 pbc="T T T"
Si      -0.76030317      -2.18862666      -0.01837296       0.00000000
Si       2.21473953       0.22156029      -0.75950775       0.00000000
Si       0.11492595       0.98574048       2.15022337       0.00000000
Si      -0.92616795       1.56432870      -1.59147128       0.00000000
Si       1.09266804       2.91318957       1.25488695       0.00000000
Si      -0.87573411       3.34956609      -0.04779732       0.00000000
Si      -2.49914664      -1.99809882      -1.53804465       0.00000000
Si       2.06190675      -0.15838767      -3.08075160       0.00000000
Si       2.92644963       2.45019519      -0.10630069       0.00000000
Si       0.60196437       1.65289743      -3.46316472       0.00000000
