10
Lattice="16.28999089631971 0.0 0.0 0.0 16.28999089631971 0.0 0.0 0.0 34.53561885213415" Properties=species:S:1:pos:R:3:initial_magmoms:R:1 pbc="T T T"
Si      -0.41503662      -2.26663947       0.19333050       0.00000000
Si      -1.77214023       0.77340033      -1.28652159       0.00000000
Si      -0.70928289       0.58298652       2.23048419       0.00000000
Si       1.87781346       0.33557400      -1.53669776       0.00000000
Si      -0.78266934       2.50712874      -2.44470875       0.00000000
Si       0.46283148      -3.04577388      -1.86499353       0.00000000
Si       2.60333748      -1.89473877      -1.94145543       0.00000000
Si       1.12751235       1.63864368       3.28254334       0.00000000
Si      -3.42617796       1.74011409       0.03049497       0.00000000
Si       0.98748351       1.36827855      -3.46306112       0.00000000
