10
Lattice="16.28999089631971 0.0 0.0 0.0 16.28999089631971 0.0 0.0 0.0 34.53561885213415" Properties=species:S:1:pos:R:3:initial_magmoms:R:1 pbc="T T T"
Si       2.28330414       0.84271428      -0.26074407       0.00000000
Si      -1.14385122       0.83818566      -2.00700408       0.00000000
Si       0.38418336      -2.41864146      -0.47462328       0.00000000
Si      -1.24362747       0.75614922       2.33043033       0.00000000
Si      -2.75794587       2.14306353       1.16478347       0.00000000
Si       2.50606989      -2.72979675       0.63604285       0.00000000
Si      -3.42050904       0.33860394      -1.62669763       0.00000000
Si       3.74013513      -0.72210312       0.69423540       0.00000000
Si      -0.72881460       3.10482513      -2.20033458       0.00000000
Si      -1.43809749       3.68781165       0.03014961       0.00000000
