10
Lattice="16.28999089631971 0.0 0.0 0.0 16.28999089631971 0.0 0.0 0.0 34.53561885213415" Properties=species:S:1:pos:R:3:initial_magmoms:R:1 pbc="T T T"
Si       1.34226342       1.36332639      -1.38778008       0.00000000
Si      -1.37295378      -1.34811153      -1.38815998       0.00000000
Si      -1.32823773       1.45683099       1.37724671       0.00000000
Si       1.38222279      -1.53841131       1.50444147       0.00000000
Si      -2.36283192      -0.05367555       3.00211395       0.00000000
Si       2.69851995       2.71868697       0.00158864       0.00000000
Si       2.70598077      -2.71705797      -0.03018415       0.00000000
Si      -2.73730644      -2.69236233      -0.02248270       0.00000000
Si       2.70005121       0.00721647      -2.74879505       0.00000000
Si      -0.01544292      -2.70705591      -2.74824248       0.00000000
