10
Lattice="16.28999089631971 0.0 0.0 0.0 16.28999089631971 0.0 0.0 0.0 34.53561885213415" Properties=species:S:1:pos:R:3:initial_magmoms:R:1 pbc="T T T"
Si      -1.05955047       0.93318894       1.99008161       0.00000000
Si       1.03459419       1.51050654      -1.62486724       0.00000000
Si      -1.68425568      -1.32698340      -1.48748447       0.00000000
Si       1.79242128      -1.38523644       1.42000183       0.00000000
Si      -2.07497133      -2.70622512       0.54144973       0.00000000
Si      -1.90824318      -1.34915409       2.64301239       0.00000000
Si       1.96775055       3.14266680      -0.17609722       0.00000000
Si       2.36283192       0.05367555      -3.00211395       0.00000000
Si       2.45258982       2.16862254       2.26198069       0.00000000
Si       2.49922809      -3.11246514      -0.11945877       0.00000000
