10
Lattice="16.28999089631971 0.0 0.0 0.0 16.28999089631971 0.0 0.0 0.0 34.53561885213415" Properties=species:S:1:pos:R:3:initial_magmoms:R:1 pbc="T T T"
Si       0.05043384       1.78523739       1.54367395       0.00000000
Si      -2.27566413      -0.00335574      -0.78606566       0.00000000
Si       0.92616795      -1.56432870       1.59147128       0.00000000
Si       1.52813232       0.08856873      -1.87169345       0.00000000
Si       3.14090748      -1.34276841       0.83196352       0.00000000
Si      -2.99687130      -1.79137872       0.55636913       0.00000000
Si       0.03754845      -0.00265527      -3.67034402       0.00000000
Si      -1.90014705       1.32123303       2.90814248       0.00000000
Si       2.01883599       1.34886087       2.84635823       0.00000000
Si       2.98807470      -1.72271637      -1.48928032       0.00000000
