10
Lattice="16.28999089631971 0.0 0.0 0.0 16.28999089631971 0.0 0.0 0.0 34.53561885213415" Properties=species:S:1:pos:R:3:initial_magmoms:R:1 pbc="T T T"
Si      -1.33354827      -1.35897696      -1.36857827       0.00000000
Si       1.42535871      -1.26811134       1.39648306       0.00000000
Si       1.38070782       1.35803762      -1.37127205       0.00000000
Si      -1.34845362       1.35388583       1.52526646       0.00000000
Si       0.54739287       2.15058529       2.82190699       0.00000000
Si       2.35851507       0.36404892       2.84525308       0.00000000
Si      -2.67821772       2.72565324       0.00815041       0.00000000
Si      -2.69169770      -0.00229689      -2.73014580       0.00000000
Si      -2.70237091      -2.72121192       0.02907901       0.00000000
Si       0.02397888       2.71337058      -2.73000766       0.00000000
