10
Lattice="16.28999089631971 0.0 0.0 0.0 16.28999089631971 0.0 0.0 0.0 34.53561885213415" Properties=species:S:1:pos:R:3:initial_magmoms:R:1 pbc="T T T"
Si       0.70790964      -0.16355649       2.21166227       0.00000000
Si      -2.24868530       0.75930134      -0.43704850       0.00000000
Si       1.31997218       2.09170116      -0.30626204       0.00000000
Si       0.35992755      -2.55664124      -0.36852979       0.00000000
Si       0.02156796      -1.34754857      -2.43010018       0.00000000
Si      -1.79787584       0.50899571      -2.70199926       0.00000000
Si       0.15355443       2.04737607       2.96433197       0.00000000
Si       3.46127639       1.06172518      -0.09272819       0.00000000
Si       3.08869151      -0.24593257       1.87559597       0.00000000
Si      -0.71110623      -1.88265878       3.09453132       0.00000000
