10
Lattice="16.28999089631971 0.0 0.0 0.0 16.28999089631971 0.0 0.0 0.0 34.53561885213415" Properties=species:S:1:pos:R:3:initial_magmoms:R:1 pbc="T T T"
Si       1.97244207       1.28212074       0.30857593       0.00000000
Si      -1.60909362      -0.33673059       1.72122167       0.00000000
Si      -1.35803214       0.66644019      -1.86264511       0.00000000
Si       1.33134912      -2.00329533      -0.04472365       0.00000000
Si       2.54435139       0.18495666       2.35260221       0.00000000
Si      -2.94598134       1.57535703       1.33984462       0.00000000
Si       3.15144711       0.63633627      -1.69825547       0.00000000
Si       2.08083573      -2.15464572       2.18593322       0.00000000
Si      -0.02238246       2.02869144      -3.19592795       0.00000000
Si      -2.88342774       2.25616500      -0.96644530       0.00000000
