10
Lattice="16.28999089631971 0.0 0.0 0.0 16.28999089631971 0.0 0.0 0.0 34.53561885213415" Properties=species:S:1:pos:R:3:initial_magmoms:R:1 pbc="T T T"
Si      -0.84207897       2.20761495      -0.43097023       0.00000000
Si      -2.15407557      -1.11417084      -0.16666899       0.00000000
Si       1.31584104      -0.62762112      -1.96179693       0.00000000
Si       1.47106845      -0.83201175       1.85656684       0.00000000
Si      -1.42078122       2.23953847       1.89776785       0.00000000
Si      -1.13744925      -3.27207456      -0.41777761       0.00000000
Si       3.52574244      -0.51399837      -1.13819103       0.00000000
Si       0.85232538      -2.96722350      -2.12846591       0.00000000
Si       3.18314745      -1.93126095       0.74800739       0.00000000
Si      -2.26733994       0.39732939       3.21806327       0.00000000
