10
Lattice="16.28999089631971 0.0 0.0 0.0 16.28999089631971 0.0 0.0 0.0 34.53561885213415" Properties=species:S:1:pos:R:3:initial_magmoms:R:1 pbc="T T T"
Si      -1.45396395       1.23044780      -1.36748004       0.00000000
Si       1.34273583       1.37128625       1.37817918       0.00000000
Si      -1.36575360      -1.35203752       1.37721218       0.00000000
Si       1.43971020      -1.24634800      -1.62060900       0.00000000
Si       0.35207577       2.16796174      -2.57296997       0.00000000
Si      -0.35974836      -2.45265508      -2.76421318       0.00000000
Si       2.68330509      -2.69566930       0.00096009       0.00000000
Si       2.71945260       2.69297215       0.02684455       0.00000000
Si       2.69920413       0.01184745       2.73636222       0.00000000
Si      -2.73963591      -2.69684218       0.00243476       0.00000000
