10
Lattice="16.28999089631971 0.0 0.0 0.0 16.28999089631971 0.0 0.0 0.0 34.53561885213415" Properties=species:S:1:pos:R:3:initial_magmoms:R:1 pbc="T T T"
Si      -1.80603972      -0.93751394       1.20548993       0.00000000
Si       0.94319100       1.76764419       1.31117935       0.00000000
Si       0.88953174      -0.42785685      -2.21693106       0.00000000
Si      -0.35207577      -2.16796174       2.57296997       0.00000000
Si       2.12359698       1.57983678      -2.15873851       0.00000000
Si      -1.23235479      -0.11670156      -3.32759719       0.00000000
Si       2.36737683       0.52501041       2.59981452       0.00000000
Si       1.08763443      -3.41430974       0.95236097       0.00000000
Si       2.62308096       2.69560404       0.04129254       0.00000000
Si      -3.60367380      -1.54906660      -0.15004219       0.00000000
