10
Lattice="16.28999089631971 0.0 0.0 0.0 16.28999089631971 0.0 0.0 0.0 34.53561885213415" Properties=species:S:1:pos:R:3:initial_magmoms:R:1 pbc="T T T"
Si       0.87920388       0.66072240       2.06830483       0.00000000
Si       0.99127908      -2.09790602      -0.34725584       0.00000000
Si       1.62957015       0.97453296      -1.41824052       0.00000000
Si      -2.19920539       0.31682421      -0.84156443       0.00000000
Si       2.11369266      -1.56565471      -2.35757534       0.00000000
Si       2.65914702      -0.82815102       2.41701117       0.00000000
Si      -1.96822785      -0.06413373      -3.22366007       0.00000000
Si      -0.44424459      -0.31882788       3.77377825       0.00000000
Si      -3.01434137       2.41337979      -0.05066378       0.00000000
Si       2.14754328      -2.93487875       1.51915365       0.00000000
