10
Lattice="16.28999089631971 0.0 0.0 0.0 16.28999089631971 0.0 0.0 0.0 34.53561885213415" Properties=species:S:1:pos:R:3:initial_magmoms:R:1 pbc="T T T"
Si      -0.98872155      -1.79412766      -1.42842853       0.00000000
Si       1.78390161       0.96790293      -1.48085363       0.00000000
Si      -1.74441465       1.80576279      -0.29137718       0.00000000
Si       0.34727022      -0.34425820       2.63679597       0.00000000
Si       2.49626331       2.71906164       0.03412121       0.00000000
Si       0.38089278       2.24243253      -2.93798127       0.00000000
Si      -2.33127819      -0.48221658      -2.93228289       0.00000000
Si      -2.71665072      -2.82562172      -0.07932836       0.00000000
Si      -3.62568159       0.87418656      -1.51435320       0.00000000
Si       1.76704146       2.60680725       2.52407165       0.00000000
