10
Lattice="16.28999089631971 0.0 0.0 0.0 16.28999089631971 0.0 0.0 0.0 34.53561885213415" Properties=species:S:1:pos:R:3:initial_magmoms:R:1 pbc="T T T"
Si      -2.04367824      -0.53387217      -1.01431169       0.00000000
Si       0.80920575       2.20172382       0.22064819       0.00000000
Si       1.48155921      -0.34546203      -1.82310180       0.00000000
Si       0.08821035      -1.41141284       1.96573399       0.00000000
Si      -0.72614304       2.79122634       1.94221522       0.00000000
Si       0.99147456      -2.57952639      -2.18569147       0.00000000
Si       3.15581283       1.52990793       0.55225939       0.00000000
Si      -1.35788553      -2.41154228      -2.23013883       0.00000000
Si       2.21601015      -0.91911438       2.76868758       0.00000000
Si       3.47657922      -1.22582250       0.77373644       0.00000000
