10
Lattice="16.28999089631971 0.0 0.0 0.0 16.28999089631971 0.0 0.0 0.0 34.53561885213415" Properties=species:S:1:pos:R:3:initial_magmoms:R:1 pbc="T T T"
Si       1.29591837      -1.40603877      -1.37672868       0.00000000
Si      -1.44267498       1.31512428      -1.35852840       0.00000000
Si      -0.82938906      -1.84270851       1.26987541       0.00000000
Si       1.88478558       0.90702720       1.23181714       0.00000000
Si      -1.52127423      -0.66533247       3.29549420       0.00000000
Si       0.87824277       2.65458582       2.41770188       0.00000000
Si       2.70762606       2.62772361      -0.09483486       0.00000000
Si       2.69892720      -2.68056837       0.08039897       0.00000000
Si       2.64860739      -0.05248638      -2.74023021       0.00000000
Si      -0.06356358       2.66245389      -2.73411740       0.00000000
