10
Lattice="16.28999089631971 0.0 0.0 0.0 16.28999089631971 0.0 0.0 0.0 34.53561885213415" Properties=species:S:1:pos:R:3:initial_magmoms:R:1 pbc="T T T"
Si       0.95304645      -1.72302588       1.36858556       0.00000000
Si      -1.00326852      -1.27397574      -1.78642495       0.00000000
Si       2.31663348       0.16285113      -0.72773497       0.00000000
Si      -1.74964374       1.27770615       1.17607662       0.00000000
Si       0.45356247      -2.83879314      -0.83144549       0.00000000
Si       2.00829636       0.06849945       2.61039490       0.00000000
Si       1.95681996       1.89431523      -2.16859633       0.00000000
Si       2.47536324      -2.04978699      -1.67867376       0.00000000
Si      -0.72684351      -2.65098573       2.63847237       0.00000000
Si      -0.65252853       2.87353971       2.52171774       0.00000000
