10
Lattice="16.28999089631971 0.0 0.0 0.0 16.28999089631971 0.0 0.0 0.0 34.53561885213415" Properties=species:S:1:pos:R:3:initial_magmoms:R:1 pbc="T T T"
Si       1.35767376       1.35638685      -1.35714697       0.00000000
Si      -1.35677781       1.35720135       1.35783769       0.00000000
Si       1.35783666      -1.35816246       1.35700883       0.00000000
Si      -1.35803214      -1.35871632      -1.35714697       0.00000000
Si       2.71347417      -0.00208512       2.71394859       0.00000000
Si      -2.71399545       2.71448415       0.00013814       0.00000000
Si       0.00104256       2.71443528       2.71495012       0.00000000
Si      -2.71458189      -2.71515204      -0.00020721       0.00000000
Si      -2.71445157       0.00016290       2.71550269       0.00000000
Si       2.71562445       2.71485882      -0.00027629       0.00000000
