10
Lattice="16.28999089631971 0.0 0.0 0.0 16.28999089631971 0.0 0.0 0.0 34.53561885213415" Properties=species:S:1:pos:R:3:initial_magmoms:R:1 pbc="T T T"
Si      -1.35563751      -1.35607734      -1.35693976       0.00000000
Si      -1.35083196       1.35917244       1.35880468       0.00000000
Si       1.35961227       1.35900954      -1.35624905       0.00000000
Si       1.35984033      -1.35633798       1.35952993       0.00000000
Si       0.01045818      -2.72807001       2.68604379       0.00000000
Si      -2.70650205      -0.00775404       2.71961243       0.00000000
Si       0.00229689      -2.71342530      -2.71356870       0.00000000
Si      -2.71184517      -2.71541268       0.00034536       0.00000000
Si      -2.71347417       0.00208512      -2.71394859       0.00000000
Si      -2.71243161       2.71652040       0.00100153       0.00000000
