10
Lattice="16.28999089631971 0.0 0.0 0.0 16.28999089631971 0.0 0.0 0.0 34.53561885213415" Properties=species:S:1:pos:R:3:initial_magmoms:R:1 pbc="T T T"
Si       2.04885846      -0.09210366      -1.21365140       0.00000000
Si      -1.95792768       0.80399295      -1.09768072       0.00000000
Si      -0.62447715      -2.17621368       0.77656836       0.00000000
Si       0.77548545       1.52531415       1.68616800       0.00000000
Si      -1.49955966      -1.30140810       2.82877959       0.00000000
Si       1.57962501       3.22903638       0.28336491       0.00000000
Si      -2.28408606      -0.55527723      -2.92385620       0.00000000
Si       3.10922343       2.05874649      -1.12983340       0.00000000
Si       1.71678681      -1.08981729      -3.34677962       0.00000000
Si       3.58935489      -1.59619194      -0.18424763       0.00000000
