10
Lattice="16.28999089631971 0.0 0.0 0.0 16.28999089631971 0.0 0.0 0.0 34.53561885213415" Properties=species:S:1:pos:R:3:initial_magmoms:R:1 pbc="T T T"
Si       1.35775521       1.90635421       0.80861743       0.00000000
Si       0.86462433      -0.28245231      -2.34752547       0.00000000
Si       0.54683901      -1.63071045       1.92263351       0.00000000
Si      -2.39055750       0.73352241       0.78692905       0.00000000
Si       2.31764346      -2.32797132       0.29856059       0.00000000
Si      -2.13293115       3.11335036       0.38237859       0.00000000
Si       1.11711933      -0.14356377       3.64869017       0.00000000
Si      -0.84975156      -1.25221230      -3.66730488       0.00000000
Si       2.63775825      -1.93396509      -2.32062221       0.00000000
Si      -1.96432965      -2.93011488      -1.97744157       0.00000000
