10
Lattice="16.28999089631971 0.0 0.0 0.0 16.28999089631971 0.0 0.0 0.0 34.53561885213415" Properties=species:S:1:pos:R:3:initial_magmoms:R:1 pbc="T T T"
Si       1.35189570      -1.36021500       1.36091136       0.00000000
Si       1.34655258       1.34280099      -1.38765576       0.00000000
Si      -1.36337756       1.35627282       1.36077321       0.00000000
Si      -1.36739607      -1.35946566      -1.37522293       0.00000000
Si      -0.17499695       2.54446542      -2.84100520       0.00000000
Si       2.71199667      -2.71293986       0.00331542       0.00000000
Si       2.71409808       2.71450044      -0.00107060       0.00000000
Si       2.71070976      -0.00110772       2.71812740       0.00000000
Si      -0.00449278       2.71422351       2.71802379       0.00000000
Si      -2.71894991       2.71464705       0.00400613       0.00000000
