10
Lattice="16.28999089631971 0.0 0.0 0.0 16.28999089631971 0.0 0.0 0.0 34.53561885213415" Properties=species:S:1:pos:R:3:initial_magmoms:R:1 pbc="T T T"
Si      -0.49226751      -1.86043203       1.34195129       0.00000000
Si       0.49677984      -0.95529447      -2.13140144       0.00000000
Si      -2.03175396       0.88018128      -0.94848677       0.00000000
Si       2.18660670       0.96765858       0.48001083       0.00000000
Si      -1.77101622      -0.68067765      -2.72551803       0.00000000
Si       1.67482377      -1.93197771       2.28021551       0.00000000
Si       2.26442403       2.26737252      -1.48130259       0.00000000
Si       3.32203599      -1.09344996       0.75515626       0.00000000
Si       1.69414371       0.78022584      -3.20735925       0.00000000
Si      -2.32604910      -1.39743765       2.70313893       0.00000000
