10
Lattice="16.28999089631971 0.0 0.0 0.0 16.28999089631971 0.0 0.0 0.0 34.53561885213415" Properties=species:S:1:pos:R:3:initial_magmoms:R:1 pbc="T T T"
Si      -1.52497206      -0.52090533       1.67010893       0.00000000
Si      -1.31696505       0.50008901      -1.84965971       0.00000000
Si       1.64284650      -1.59032754      -0.51233619       0.00000000
Si       1.16813961       1.85379290       1.10976820       0.00000000
Si      -0.82688040       2.73415337      -1.48707004       0.00000000
Si       0.19101654      -1.44436914       3.06852599       0.00000000
Si       1.72061496      -2.61465903       1.65532767       0.00000000
Si      -2.22022926       1.66820256       2.30176575       0.00000000
Si       1.43381322       3.21724961      -0.91384752       0.00000000
Si      -0.09242946       2.16050102       3.10471933       0.00000000
