10
Lattice="16.28999089631971 0.0 0.0 0.0 16.28999089631971 0.0 0.0 0.0 34.53561885213415" Properties=species:S:1:pos:R:3:initial_magmoms:R:1 pbc="T T T"
Si      -0.55550529       0.48042468      -2.33965134       0.00000000
Si      -1.91646963      -0.72708786       1.35758700       0.00000000
Si       0.71053722       1.84654385       1.46880557       0.00000000
Si       1.75308093      -1.79317062       0.45978266       0.00000000
Si      -2.11457232       2.25936503      -1.81170504       0.00000000
Si      -1.66125420      -1.61538156      -2.78077505       0.00000000
Si       2.07941850       0.54461619       2.97062578       0.00000000
Si      -2.00384919      -3.03264414      -0.89457664       0.00000000
Si      -0.67287474      -2.17640916       2.97915608       0.00000000
Si       0.65476026      -3.56529456       1.62891969       0.00000000
