10
Lattice="16.28999089631971 0.0 0.0 0.0 16.28999089631971 0.0 0.0 0.0 34.53561885213415" Properties=species:S:1:pos:R:3:initial_magmoms:R:1 pbc="T T T"
Si       1.35663120       1.35755254       1.35669801       0.00000000
Si       1.35713619      -1.35735744      -1.35763047       0.00000000
Si      -1.35738054      -1.35773211       1.35756140       0.00000000
Si      -1.35827649       1.35893394      -1.35690522       0.00000000
Si       0.00203625      -2.71428186       2.71298159       0.00000000
Si       2.71391215      -2.71402122       0.00065618       0.00000000
Si      -0.00161271      -2.71449363      -2.71460477       0.00000000
Si      -0.00016290       2.71576876      -2.71339602       0.00000000
Si      -2.71557558      -2.71457508       0.00003454       0.00000000
Si       2.71507486       2.71511716      -0.00003454       0.00000000
