10
Lattice="16.28999089631971 0.0 0.0 0.0 16.28999089631971 0.0 0.0 0.0 34.53561885213415" Properties=species:S:1:pos:R:3:initial_magmoms:R:1 pbc="T T T"
Si      -1.35663120      -1.35755254      -1.35669801       0.00000000
Si      -1.35417141       1.35585417       1.36184382       0.00000000
Si       1.35844366       1.35756462      -1.35673254       0.00000000
Si       1.35788553      -1.35780638       1.36287989       0.00000000
Si      -2.71490769       0.00138139      -2.71360323       0.00000000
Si       2.71546711       0.00038282      -2.71339602       0.00000000
Si      -0.00034209       2.71597143      -2.71308520       0.00000000
Si       0.00050499      -2.71490999      -2.71432848       0.00000000
Si      -2.71401174      -2.71528466       0.00086339       0.00000000
Si       2.71535145      -2.71412807       0.00044896       0.00000000
