10
Lattice="16.28999089631971 0.0 0.0 0.0 16.28999089631971 0.0 0.0 0.0 34.53561885213415" Properties=species:S:1:pos:R:3:initial_magmoms:R:1 pbc="T T T"
Si      -1.35674523      -1.35599962      -1.37327512       0.00000000
Si       1.36243044       1.35503315      -1.37448386       0.00000000
Si       1.28353797      -1.50559578       1.32962207       0.00000000
Si      -1.30727250       1.44492137       1.43799490       0.00000000
Si       2.70888039       2.71907630      -0.00010361       0.00000000
Si      -2.71028133       2.71945097      -0.01913274       0.00000000
Si      -2.71422351      -2.71890756       0.01509207       0.00000000
Si       2.71912680      -2.72856753      -0.03090940       0.00000000
Si      -2.71507059       0.00050662      -2.73598233       0.00000000
Si       0.00259011      -2.71610568      -2.73546429       0.00000000
