10
Lattice="16.28999089631971 0.0 0.0 0.0 16.28999089631971 0.0 0.0 0.0 34.53561885213415" Properties=species:S:1:pos:R:3:initial_magmoms:R:1 pbc="T T T"
Si       1.25553546      -2.03059967       0.15250938       0.00000000
Si      -2.39044347      -0.34569986      -0.01795853       0.00000000
Si       0.17808228       0.59871289      -2.34980482       0.00000000
Si       1.12881555       1.73459667       1.45919978       0.00000000
Si       1.42117269       3.36547002      -0.32380614       0.00000000
Si       0.84792708      -3.04299059      -2.01156278       0.00000000
Si      -3.19236759       1.38644679      -1.38677855       0.00000000
Si       1.41032746      -1.16042045      -3.31794236       0.00000000
Si       3.54010112      -1.44106457      -0.24085154       0.00000000
Si       1.65206405       2.43345396      -2.49409472       0.00000000
