10
Lattice="16.28999089631971 0.0 0.0 0.0 16.28999089631971 0.0 0.0 0.0 34.53561885213415" Properties=species:S:1:pos:R:3:initial_magmoms:R:1 pbc="T T T"
Si      -1.38978135       1.22302062      -1.34568459       0.00000000
Si       1.24199847      -1.34092764      -1.40530692       0.00000000
Si      -1.35718506      -1.34900748       1.32522914       0.00000000
Si       1.35327546       1.36795275       1.32453842       0.00000000
Si       0.33866910       2.06166240      -2.78418168       0.00000000
Si       1.99875042       0.27807030      -2.94228583       0.00000000
Si      -0.44722566      -2.28338559      -2.71598353       0.00000000
Si      -2.44503126      -0.56850471      -2.58749393       0.00000000
Si      -0.00410508      -2.70524772       2.68230704       0.00000000
Si       2.70884781       0.00957852       2.68130550       0.00000000
