10
Lattice="16.28999089631971 0.0 0.0 0.0 16.28999089631971 0.0 0.0 0.0 34.53561885213415" Properties=species:S:1:pos:R:3:initial_magmoms:R:1 pbc="T T T"
Si      -1.35327546      -1.36795275      -1.32453842       0.00000000
Si       1.35557235      -1.35837423       1.35676708       0.00000000
Si      -1.35887922       1.35526284       1.35704337       0.00000000
Si       1.35892809       1.35334062      -1.37995085       0.00000000
Si       2.54395296      -0.17018163      -2.84501134       0.00000000
Si      -2.74305681      -0.14493213      -2.67022302       0.00000000
Si      -0.09774000       2.60301168      -2.81677500       0.00000000
Si      -2.71046052      -2.71696023       0.00069071       0.00000000
Si       2.71497515       2.71316466      -0.00352264       0.00000000
Si      -0.00068418       2.71406061       2.71415580       0.00000000
