10
Lattice="16.28999089631971 0.0 0.0 0.0 16.28999089631971 0.0 0.0 0.0 34.53561885213415" Properties=species:S:1:pos:R:3:initial_magmoms:R:1 pbc="T T T"
Si       1.35739683      -1.35395964       1.35742326       0.00000000
Si       1.35762479       1.35711990      -1.35742326       0.00000000
Si      -1.35734796       1.35663120       1.35870108       0.00000000
Si      -1.35770634      -1.35731538      -1.35766501       0.00000000
Si      -2.70673011      -0.01510083       2.68521494       0.00000000
Si       2.71341620       2.71471221       0.00041443       0.00000000
Si      -2.71547784      -2.71290402       0.00048350       0.00000000
Si      -0.00066789      -2.71497285      -2.71394859       0.00000000
Si      -0.00042354       2.71453302      -2.71457023       0.00000000
Si      -2.71489140      -0.00045612      -2.71439755       0.00000000
