10
Lattice="16.28999089631971 0.0 0.0 0.0 16.28999089631971 0.0 0.0 0.0 34.53561885213415" Properties=species:S:1:pos:R:3:initial_magmoms:R:1 pbc="T T T"
Si      -0.04608441       2.14213500       0.98595793       0.00000000
Si       0.87868260      -0.10691127      -2.18652032       0.00000000
Si      -2.37285027       0.13067838      -0.32038712       0.00000000
Si       2.08404486      -0.67308651       1.10717802       0.00000000
Si      -0.88389540      -2.59041951       2.04827416       0.00000000
Si       3.16319939       1.29228570       0.27770107       0.00000000
Si       2.72318205       1.37101527      -1.99750678       0.00000000
Si       0.96308109      -2.43760302      -2.64681131       0.00000000
Si      -0.54881010       1.21199229      -3.53530967       0.00000000
Si       2.06008227       2.85215094       1.63118726       0.00000000
