10
Lattice="16.28999089631971 0.0 0.0 0.0 16.28999089631971 0.0 0.0 0.0 34.53561885213415" Properties=species:S:1:pos:R:3:initial_magmoms:R:1 pbc="T T T"
Si      -1.34533150      -1.33736013      -1.39026665       0.00000000
Si       1.37047933       1.37603259      -1.38543166       0.00000000
Si      -1.60214335       1.18247481       1.39216611       0.00000000
Si       1.34821090      -1.42091154       1.47294497       0.00000000
Si       2.28223063       0.38196792       2.83337283       0.00000000
Si      -2.71077559      -2.69444745      -0.01232922       0.00000000
Si       2.72880469      -2.69687466      -0.01018801       0.00000000
Si       0.01149422      -2.69931816      -2.74689559       0.00000000
Si      -2.70272833       0.01659951      -2.74768991       0.00000000
Si      -2.70173464       2.74924701      -0.00870298       0.00000000
