10
Lattice="16.28999089631971 0.0 0.0 0.0 16.28999089631971 0.0 0.0 0.0 34.53561885213415" Properties=species:S:1:pos:R:3:initial_magmoms:R:1 pbc="T T T"
Si       1.26970776      -1.95957297      -0.17274726       0.00000000
Si      -0.67468293       0.27298782      -2.24681955       0.00000000
Si       0.91326627       2.07604647       0.67672583       0.00000000
Si      -1.62795744      -0.16228098       1.80928755       0.00000000
Si      -0.44010693      -3.33482364      -1.03589647       0.00000000
Si       1.19760822      -2.70324405       2.02862339       0.00000000
Si      -0.62723016       3.58013475      -0.35267794       0.00000000
Si      -0.95930181       2.58242112      -2.48580616       0.00000000
Si       0.72762543       2.14568622       3.09045612       0.00000000
Si       2.93143437       2.56899816      -0.54704451       0.00000000
