10
Lattice="16.28999089631971 0.0 0.0 0.0 16.28999089631971 0.0 0.0 0.0 34.53561885213415" Properties=species:S:1:pos:R:3:initial_magmoms:R:1 pbc="T T T"
Si      -1.72845045      -0.83864178       1.43849709       0.00000000
Si       1.66008132      -1.78359210      -0.15810415       0.00000000
Si       0.91686636       1.90930203       1.29194511       0.00000000
Si      -1.42011333      -0.74429010      -1.89963278       0.00000000
Si      -0.33866910      -2.06166240       2.78418168       0.00000000
Si       2.37353445       0.65963097       2.72876925       0.00000000
Si       0.90332937      -3.40259004       1.37887476       0.00000000
Si      -2.78370036      -2.63016711       0.19668775       0.00000000
Si       3.55855932      -0.86389128       1.26370877       0.00000000
Si      -1.77992685       0.98717400      -3.34049414       0.00000000
