10
Lattice="16.28999089631971 0.0 0.0 0.0 16.28999089631971 0.0 0.0 0.0 34.53561885213415" Properties=species:S:1:pos:R:3:initial_magmoms:R:1 pbc="T T T"
Si       1.73064960       0.00309510       1.55814439       0.00000000
Si      -1.41698565       1.86316875       0.26419763       0.00000000
Si      -1.02882753      -2.13271938       0.04769372       0.00000000
Si       0.75201156       0.65459736      -2.25396842       0.00000000
Si       1.20177846      -2.62062117      -1.25999822       0.00000000
Si      -1.98536004      -1.73477097      -2.26084102       0.00000000
Si       2.73072528      -0.68662350      -2.14000082       0.00000000
Si       3.61483245      -0.24048927       0.01844203       0.00000000
Si      -0.21962178       3.59868906      -0.81176017       0.00000000
Si      -3.27057588      -1.65055167       0.76309946       0.00000000
