10
Lattice="16.28999089631971 0.0 0.0 0.0 16.28999089631971 0.0 0.0 0.0 34.53561885213415" Properties=species:S:1:pos:R:3:initial_magmoms:R:1 pbc="T T T"
Si       0.92669479      -1.20172959      -1.86019308       0.00000000
Si       1.64565720       0.31164399       1.76480565       0.00000000
Si       1.06216243       2.21100912       0.01036069       0.00000000
Si      -2.23664958       0.52776342      -0.90607700       0.00000000
Si       2.97413765      -0.05657517      -1.67052335       0.00000000
Si      -0.00369783       1.68586839       3.14971927       0.00000000
Si       2.43881567       2.23827858      -1.85950237       0.00000000
Si       3.83061698       0.28704609       0.50860634       0.00000000
Si      -2.05100874       0.45812367      -3.31980729       0.00000000
Si      -3.91746807      -0.89050914      -0.14359918       0.00000000
