10
Lattice="16.28999089631971 0.0 0.0 0.0 16.28999089631971 0.0 0.0 0.0 34.53561885213415" Properties=species:S:1:pos:R:3:initial_magmoms:R:1 pbc="T T T"
Si       1.35941679      -1.35654975       1.35542019       0.00000000
Si      -1.35819504      -1.35684297      -1.35752686       0.00000000
Si       1.35738054       1.35773211      -1.35756140       0.00000000
Si      -1.35933534       1.36010605       1.36218918       0.00000000
Si       2.71653669      -0.01246185       2.70455489       0.00000000
Si       2.71226871      -2.71554300       0.00017268       0.00000000
Si      -0.00070047      -2.71384884      -2.71505373       0.00000000
Si       2.71401174       2.71528466      -0.00086339       0.00000000
Si      -2.71528236      -2.71427238       0.00017268       0.00000000
Si       2.71451673       0.00037467      -2.71519187       0.00000000
