10
Lattice="16.28999089631971 0.0 0.0 0.0 16.28999089631971 0.0 0.0 0.0 34.53561885213415" Properties=species:S:1:pos:R:3:initial_magmoms:R:1 pbc="T T T"
Si      -1.71437589      -0.96975999      -1.31977941       0.00000000
Si       1.77313392      -1.65151278       0.02690326       0.00000000
Si      -0.86462433       0.28245231       2.34752547       0.00000000
Si       1.02988638       1.75744665      -1.49611838       0.00000000
Si      -0.26748180      -2.17184796      -2.83157697       0.00000000
Si       1.45301913      -2.04551901       2.64608606       0.00000000
Si       2.46547521       0.53447490      -2.85664985       0.00000000
Si       0.49313088       2.18880652       3.15614290       0.00000000
Si       1.09449252      -3.45621672      -1.37886989       0.00000000
Si      -2.82895398      -2.64766257       0.37008390       0.00000000
