10
Lattice="16.28999089631971 0.0 0.0 0.0 16.28999089631971 0.0 0.0 0.0 34.53561885213415" Properties=species:S:1:pos:R:3:initial_magmoms:R:1 pbc="T T T"
Si       0.46848411      -2.29213332       0.37101636       0.00000000
Si      -1.39664758       0.85788027       1.71155169       0.00000000
Si       2.15765937       1.03918797      -0.12805815       0.00000000
Si      -1.10605190      -0.13846500      -2.13212669       0.00000000
Si      -3.24114704      -0.62004627       1.52253814       0.00000000
Si       2.70427032      -2.20263606       1.15604595       0.00000000
Si       3.44033397       0.02806767       1.55503618       0.00000000
Si      -1.58398910       2.11357863      -2.70362243       0.00000000
Si       1.98050562       3.27316599       0.53399004       0.00000000
Si       0.17674650      -3.61940994      -1.62735381       0.00000000
