10
Lattice="16.28999089631971 0.0 0.0 0.0 16.28999089631971 0.0 0.0 0.0 34.53561885213415" Properties=species:S:1:pos:R:3:initial_magmoms:R:1 pbc="T T T"
Si      -1.64284650       1.59032754       0.51233619       0.00000000
Si      -0.80288523      -1.27325898      -1.84948703       0.00000000
Si       0.07776846      -1.02433149       2.16766386       0.00000000
Si       2.03895414       1.18371285      -0.55395164       0.00000000
Si       2.86741909       1.20396132       1.68589171       0.00000000
Si       0.33254406      -3.33436752      -1.57434160       0.00000000
Si      -0.47470689       3.44412044       1.62210439       0.00000000
Si       2.30501871      -0.67860882       2.99227130       0.00000000
Si      -2.95981155       2.09041655      -1.33732352       0.00000000
Si      -1.45182996       0.14595840       3.58086218       0.00000000
