10
Lattice="16.28999089631971 0.0 0.0 0.0 16.28999089631971 0.0 0.0 0.0 34.53561885213415" Properties=species:S:1:pos:R:3:initial_magmoms:R:1 pbc="T T T"
Si       0.07781733       1.29971394      -1.96131343       0.00000000
Si       1.13542929      -2.06110854       0.27514543       0.00000000
Si       0.80288523       1.27325898       1.84948703       0.00000000
Si      -2.18660670      -0.96765858      -0.48001083       0.00000000
Si      -0.51178293      -2.89963629       1.80020467       0.00000000
Si      -1.68982686      -1.92295305      -2.61141228       0.00000000
Si      -1.69675011       2.81491200      -1.68033147       0.00000000
Si      -0.49246299      -0.18743274      -3.68737009       0.00000000
Si      -0.83996127       2.86358652       2.36182322       0.00000000
Si       2.84183937       2.45697183       1.29553539       0.00000000
