10
Lattice="16.28999089631971 0.0 0.0 0.0 16.28999089631971 0.0 0.0 0.0 34.53561885213415" Properties=species:S:1:pos:R:3:initial_magmoms:R:1 pbc="T T T"
Si       0.56240038       1.88257014      -1.30637958       0.00000000
Si       1.59417265      -1.72341684      -0.40234018       0.00000000
Si      -2.22725025      -0.34572267      -0.82460743       0.00000000
Si       0.40760838       1.01239092       2.16407216       0.00000000
Si       2.69217404       1.60192602       1.77071124       0.00000000
Si       2.75472764       2.28273399      -0.53557868       0.00000000
Si       0.27104931      -3.50770941      -1.10279200       0.00000000
Si      -0.66984480       3.64170348      -0.33824204       0.00000000
Si      -0.84792708       3.04299059       2.01156278       0.00000000
Si      -2.30501871       0.67860882      -2.99227130       0.00000000
