10
Lattice="16.28999089631971 0.0 0.0 0.0 16.28999089631971 0.0 0.0 0.0 34.53561885213415" Properties=species:S:1:pos:R:3:initial_magmoms:R:1 pbc="T T T"
Si       1.35683157      -1.35645201       1.36053147       0.00000000
Si      -1.35713206       1.35799956       1.36084229       0.00000000
Si       1.36614945       1.34685720      -1.37645239       0.00000000
Si      -1.35604706      -1.35982404      -1.37642822       0.00000000
Si      -2.71497515      -2.71316466       0.00352264       0.00000000
Si      -0.00051802      -2.71358820       2.71754029       0.00000000
Si       2.71807284      -2.71331127      -0.00155410       0.00000000
Si       2.71387002       2.71766070      -0.00020721       0.00000000
Si       2.71470081       0.00122175       2.71705680       0.00000000
Si      -2.71565933       0.00089595       2.71767844       0.00000000
