10
Lattice="16.28999089631971 0.0 0.0 0.0 16.28999089631971 0.0 0.0 0.0 34.53561885213415" Properties=species:S:1:pos:R:3:initial_magmoms:R:1 pbc="T T T"
Si      -1.36614945      -1.34685720       1.37645239       0.00000000
Si       1.34772057       1.37080350       1.37624518       0.00000000
Si      -1.33992743       1.37448504      -1.38862275       0.00000000
Si       1.25079507      -1.45800387      -1.51394913       0.00000000
Si       2.69848737      -2.71018359      -0.01262278       0.00000000
Si      -2.72219651      -2.70668124       0.00002417       0.00000000
Si       2.69576694       2.73310362       0.00205487       0.00000000
Si      -0.00931788      -2.70330921       2.73698386       0.00000000
Si       2.70549207       0.01138671       2.73605140       0.00000000
Si      -2.71749418       2.73691548      -0.00053876       0.00000000
