10
Lattice="16.28999089631971 0.0 0.0 0.0 16.28999089631971 0.0 0.0 0.0 34.53561885213415" Properties=species:S:1:pos:R:3:initial_magmoms:R:1 pbc="T T T"
Si       1.35664749       1.35674523       1.35690522       0.00000000
Si      -1.35718017       1.35782037      -1.35780315       0.00000000
Si       1.35757602      -1.35726651      -1.35825211       0.00000000
Si      -1.35894438      -1.35741312       1.35735419       0.00000000
Si      -2.71425685      -0.00048870      -2.71446662       0.00000000
Si      -2.71242829      -0.00255753       2.71646969       0.00000000
Si       2.71498914      -2.71454931      -0.00003454       0.00000000
Si      -0.00029322      -2.71494027      -2.71477744       0.00000000
Si      -2.71473579      -2.71500543      -0.00048350       0.00000000
Si      -0.00201996       2.71552671      -2.71439755       0.00000000
