10
Lattice="16.28999089631971 0.0 0.0 0.0 16.28999089631971 0.0 0.0 0.0 34.53561885213415" Properties=species:S:1:pos:R:3:initial_magmoms:R:1 pbc="T T T"
Si       2.21796495       0.11582190      -0.51820725       0.00000000
Si       0.17715375      -2.23397802      -0.66204818       0.00000000
Si      -0.09524763       0.11512143       2.36607111       0.00000000
Si      -1.40023953       1.41587793      -1.34927285       0.00000000
Si      -2.82960395       1.76632470       0.63680263       0.00000000
Si      -1.24756965       2.20138173       2.47827739       0.00000000
Si       1.45982835      -3.24509832       1.02104614       0.00000000
Si       2.30042493       1.37979558      -2.57228340       0.00000000
Si      -1.56696768       0.05880690      -3.45083550       0.00000000
Si       2.18041650       0.11847717       3.15213677       0.00000000
