10
Lattice="16.28999089631971 0.0 0.0 0.0 16.28999089631971 0.0 0.0 0.0 34.53561885213415" Properties=species:S:1:pos:R:3:initial_magmoms:R:1 pbc="T T T"
Si       1.37665324       0.02726946      -1.86986306       0.00000000
Si      -0.89053099       2.09039796       0.77542868       0.00000000
Si      -1.06216243      -2.21100912      -0.01036069       0.00000000
Si       0.58349477      -1.89936513       1.75444495       0.00000000
Si      -1.06586026      -0.52514073       3.13935858       0.00000000
Si       2.76845455      -1.92396303       0.49824565       0.00000000
Si       1.91197522      -2.26758429      -1.68088404       0.00000000
Si      -2.77375273       1.03926942       1.75969437       0.00000000
Si       2.66300938       1.93761405      -1.29905803       0.00000000
Si      -0.95844400       3.26016657      -1.28707416       0.00000000
