10
Lattice="16.28999089631971 0.0 0.0 0.0 16.28999089631971 0.0 0.0 0.0 34.53561885213415" Properties=species:S:1:pos:R:3:initial_magmoms:R:1 pbc="T T T"
Si      -0.85647933      -0.34362126      -2.17912970       0.00000000
Si       1.59470955       1.73881089       0.37809617       0.00000000
Si       1.86041574      -1.50074883       0.02085953       0.00000000
Si      -2.18495978       0.02459790       1.25619930       0.00000000
Si      -0.97166592      -1.70186517       2.54341161       0.00000000
Si       0.54056736      -3.04549695       1.15549338       0.00000000
Si      -1.39180131       1.95123249      -2.36810871       0.00000000
Si      -2.76845455       1.92396303      -0.49824565       0.00000000
Si       2.14858584       0.88524747       2.55580990       0.00000000
Si       0.79755840      -1.31033502      -3.49614626       0.00000000
