10
Lattice="16.28999089631971 0.0 0.0 0.0 16.28999089631971 0.0 0.0 0.0 34.53561885213415" Properties=species:S:1:pos:R:3:initial_magmoms:R:1 pbc="T T T"
Si      -1.35807050      -1.35744570      -1.35649080       0.00000000
Si       1.35780734       1.35762783      -1.35683615       0.00000000
Si      -1.35746592       1.35632169       1.36243093       0.00000000
Si       1.35814943      -1.35668007       1.36156753       0.00000000
Si      -2.71282650      -0.01361844       2.70496932       0.00000000
Si       2.69169770       0.00229689       2.73014580       0.00000000
Si       0.00011566       2.71451088      -2.71384498       0.00000000
Si       2.71489466      -0.00071676      -2.71391405       0.00000000
Si       0.00015476      -2.71497285      -2.71432848       0.00000000
Si      -2.71535145       2.71412807      -0.00044896       0.00000000
