10
Lattice="16.28999089631971 0.0 0.0 0.0 16.28999089631971 0.0 0.0 0.0 34.53561885213415" Properties=species:S:1:pos:R:3:initial_magmoms:R:1 pbc="T T T"
Si       1.33354827       1.35897696       1.36857827       0.00000000
Si       1.35583299      -1.35936792      -1.36118764       0.00000000
Si      -1.35814943       1.35668007      -1.36156753       0.00000000
Si      -1.36882264      -1.36223496       1.39765728       0.00000000
Si       2.71419093      -2.71407690      -0.00034536       0.00000000
Si      -2.71561535       2.71300176       0.00086339       0.00000000
Si       2.71425609       2.71701458      -0.00269378       0.00000000
Si      -2.71324279      -2.71867068      -0.00162317       0.00000000
Si       2.71399545      -0.00071676      -2.71857636       0.00000000
Si      -0.00034209       2.71430790      -2.71840369       0.00000000
