10
Lattice="16.28999089631971 0.0 0.0 0.0 16.28999089631971 0.0 0.0 0.0 34.395419527814205" Properties=species:S:1:pos:R:3:initial_magmoms:R:1 pbc="T T T"
Si       1.24083374      -1.43280391       1.41035057       0.00000000
Si      -1.47466758       1.28009101       1.40459965       0.00000000
Si      -1.14411023      -1.81053643      -1.13657251       0.00000000
Si       1.75864396       0.87658771      -1.50796968       0.00000000
Si       2.61450427       2.58391003      -0.04157377       0.00000000
Si       2.54486452      -2.76912148      -0.06126172       0.00000000
Si       2.58959686      -0.07594398       2.77200752       0.00000000
Si       0.56975090      -3.56452960      -1.28373164       0.00000000
Si      -0.12138982       2.64177211       2.77293620       0.00000000
Si      -2.83041912       2.61442120       0.02336826       0.00000000
