10
Lattice="16.28999089631971 0.0 0.0 0.0 16.28999089631971 0.0 0.0 0.0 34.395419527814205" Properties=species:S:1:pos:R:3:initial_magmoms:R:1 pbc="T T T"
Si       1.02443412       0.84283875      -1.89044210       0.00000000
Si      -1.95237672      -1.33147944      -0.18831503       0.00000000
Si       1.43117750      -1.49139837       1.16559263       0.00000000
Si      -0.48059880       2.21932421       0.89049791       0.00000000
Si      -2.05449873       2.58643565      -0.84774438       0.00000000
Si       0.71999194      -0.91857681       3.33597921       0.00000000
Si       2.76060440       2.12353901      -0.90618223       0.00000000
Si      -0.52591029       2.46950603      -2.58509239       0.00000000
Si      -1.45531995      -0.05864400       3.32418157       0.00000000
Si      -3.06887703      -0.78859890       1.78041110       0.00000000
