10
Lattice="16.28999089631971 0.0 0.0 0.0 16.28999089631971 0.0 0.0 0.0 34.395419527814205" Properties=species:S:1:pos:R:3:initial_magmoms:R:1 pbc="T T T"
Si       1.39659057       1.36427121      -1.36664226       0.00000000
Si       1.35536058      -1.28358371       1.52090439       0.00000000
Si      -1.77503985      -0.93661310      -1.42793493       0.00000000
Si      -1.35138582       1.43697348       1.53076900       0.00000000
Si      -2.77259058      -2.61210869       0.08016889       0.00000000
Si       2.80740231      -2.60692847      -0.00039555       0.00000000
Si      -2.70295083       2.74092282       0.09985684       0.00000000
Si       2.67108759       2.81310381      -0.00050217       0.00000000
Si      -0.01078398      -2.63411648       2.90810683       0.00000000
Si      -3.55881114       1.03360050      -1.36653908       0.00000000
