10
Lattice="16.28999089631971 0.0 0.0 0.0 16.28999089631971 0.0 0.0 0.0 34.395419527814205" Properties=species:S:1:pos:R:3:initial_magmoms:R:1 pbc="T T T"
Si      -1.35643572       1.18711909      -1.43673187       0.00000000
Si      -1.25385759      -1.28193733       1.50555714       0.00000000
Si       1.37448504      -1.52241031      -1.37127735       0.00000000
Si       0.79500087       1.97160639       1.26382600       0.00000000
Si       0.54066510      -1.18875853       3.22880302       0.00000000
Si      -2.68205076       2.53136337      -0.07780248       0.00000000
Si       0.54843543       1.18686334       3.48291652       0.00000000
Si       0.00970884       2.55008058      -2.77168764       0.00000000
Si      -2.61961119      -2.81226880       0.09348680       0.00000000
Si       2.72608263       2.73914232       0.06411310       0.00000000
