10
Lattice="16.28999089631971 0.0 0.0 0.0 16.28999089631971 0.0 0.0 0.0 34.395419527814205" Properties=species:S:1:pos:R:3:initial_magmoms:R:1 pbc="T T T"
Si      -1.06520310      -2.08715527      -0.49374652       0.00000000
Si       2.23645410      -0.86972799       0.04712175       0.00000000
Si      -0.55252422       2.12358069       1.18822483       0.00000000
Si       0.62480295       1.54569294      -2.11552586       0.00000000
Si      -2.45081421      -0.73679018      -1.96483944       0.00000000
Si       2.48301954      -0.08498493      -2.17196877       0.00000000
Si      -0.08112420       3.39962526      -0.82421790       0.00000000
Si       2.90232414       0.23881140       2.01890907       0.00000000
Si      -0.99403209       0.47477205      -3.51359725       0.00000000
Si      -2.87481033       1.66974129       1.83781708       0.00000000
