10
Lattice="16.28999089631971 0.0 0.0 0.0 16.28999089631971 0.0 0.0 0.0 34.395419527814205" Properties=species:S:1:pos:R:3:initial_magmoms:R:1 pbc="T T T"
Si       1.67808177       0.21370851      -1.57101166       0.00000000
Si      -0.48094596       1.61969841       1.59646429       0.00000000
Si      -1.60847460      -0.65966355      -1.56640268       0.00000000
Si       1.18297980      -1.84984353       0.84657493       0.00000000
Si       2.87091702      -1.95717834      -0.97480113       0.00000000
Si      -2.14166259       2.90621745       0.49209554       0.00000000
Si      -0.56907486      -2.75015925      -2.36028380       0.00000000
Si      -0.56374803      -3.42507024       1.22485597       0.00000000
Si       1.55893671       2.80139130       1.91885274       0.00000000
Si      -0.92822049       0.53123319       3.66369895       0.00000000
