10
Lattice="16.28999089631971 0.0 0.0 0.0 16.28999089631971 0.0 0.0 0.0 34.395419527814205" Properties=species:S:1:pos:R:3:initial_magmoms:R:1 pbc="T T T"
Si       1.74834054       1.57029084       0.48728018       0.00000000
Si      -2.11247091       0.76914864      -0.89352471       0.00000000
Si      -0.60142680      -0.71988768       2.25572166       0.00000000
Si       1.25556804      -1.11381246      -1.78622393       0.00000000
Si       1.66188951      -0.72433485       3.17607481       0.00000000
Si       2.08163394      -2.57181633       1.59457254       0.00000000
Si       0.94825719       3.57317892      -0.38333716       0.00000000
Si       2.28861468      -2.95319781      -0.75945129       0.00000000
Si      -1.66519638       1.85761386      -2.96075937       0.00000000
Si       2.49121341       1.49019291       2.69048001       0.00000000
