10
Lattice="16.28999089631971 0.0 0.0 0.0 16.28999089631971 0.0 0.0 0.0 34.395419527814205" Properties=species:S:1:pos:R:3:initial_magmoms:R:1 pbc="T T T"
Si      -1.10236059      -0.82916100      -1.92851786       0.00000000
Si      -0.12007359       2.29907286       0.63053718       0.00000000
Si       2.32771068      -0.46389033      -0.39207361       0.00000000
Si      -1.62448767      -0.99351081       1.52712309       0.00000000
Si       1.05204078       1.95939378       2.72391238       0.00000000
Si      -0.57974481      -3.09870009       1.71953117       0.00000000
Si       2.45594556      -0.27593631      -2.83635107       0.00000000
Si      -3.72145050      -0.42060780       0.61031267       0.00000000
Si       0.86328855       3.50378352      -1.25106529       0.00000000
Si      -3.39491745      -1.08183519      -1.57053013       0.00000000
