10
Lattice="16.28999089631971 0.0 0.0 0.0 16.28999089631971 0.0 0.0 0.0 34.395419527814205" Properties=species:S:1:pos:R:3:initial_magmoms:R:1 pbc="T T T"
Si       2.32253046       0.06006123       0.11880185       0.00000000
Si      -0.53849853       1.87229115      -1.34190365       0.00000000
Si      -1.01338461      -2.11097223      -0.52012782       0.00000000
Si      -0.32940009       1.40677182       2.14686010       0.00000000
Si      -2.94259139      -1.20355407      -1.52616001       0.00000000
Si       0.64252647       3.49651818      -0.21438677       0.00000000
Si       2.70576900       2.37460959      -0.26604872       0.00000000
Si      -2.78389910       0.84331701       2.35777293       0.00000000
Si      -3.73596000       0.45748836      -0.00890842       0.00000000
Si      -2.84871864       2.29803030      -1.18382221       0.00000000
