10
Lattice="16.28999089631971 0.0 0.0 0.0 16.28999089631971 0.0 0.0 0.0 34.395419527814205" Properties=species:S:1:pos:R:3:initial_magmoms:R:1 pbc="T T T"
Si      -1.35718506       1.35765747      -1.35751918       0.00000000
Si       1.35715248       1.35733167       1.35813829       0.00000000
Si      -1.35782037      -1.35798327       1.35769115       0.00000000
Si       1.35778779      -1.35811359      -1.35762236       0.00000000
Si       2.71448415      -0.00179190      -2.71383451       0.00000000
Si      -2.71479366       2.71482807      -0.00020637       0.00000000
Si       2.71467963       2.71498827      -0.00010319       0.00000000
Si      -2.71451673      -2.71542897      -0.00020637       0.00000000
Si      -0.00195480       2.71567332       2.71469440       0.00000000
Si      -2.71598283      -0.00063531      -2.71469440       0.00000000
