10
Lattice="16.28999089631971 0.0 0.0 0.0 16.28999089631971 0.0 0.0 0.0 34.395419527814205" Properties=species:S:1:pos:R:3:initial_magmoms:R:1 pbc="T T T"
Si      -0.92165562       1.72955817       1.32584098       0.00000000
Si      -0.60054714      -1.96745733       1.23741030       0.00000000
Si      -1.06148898      -0.47208420      -2.10235240       0.00000000
Si       2.32217208      -0.14007771      -0.63201619       0.00000000
Si       1.09483461      -3.34456506       0.44745026       0.00000000
Si       2.93127147      -1.91396097       0.73093747       0.00000000
Si      -2.67001245      -2.38715289       0.29820845       0.00000000
Si       0.17141967       1.38495951       3.38643732       0.00000000
Si       0.51162003      -1.93746744      -3.12596066       0.00000000
Si      -3.26808351       1.37433843       1.57737482       0.00000000
