10
Lattice="16.28999089631971 0.0 0.0 0.0 16.28999089631971 0.0 0.0 0.0 34.395419527814205" Properties=species:S:1:pos:R:3:initial_magmoms:R:1 pbc="T T T"
Si      -1.71198126      -1.37415828      -0.69795224       0.00000000
Si      -0.71034174       1.49529982       1.62628513       0.00000000
Si       2.33438958      -0.26355591      -0.01231357       0.00000000
Si      -0.12199581       1.65280784      -1.68238410       0.00000000
Si       1.29754737       2.73133616       1.53806083       0.00000000
Si       2.89937565       1.05727801       1.83547819       0.00000000
Si       2.80979694      -0.11465391      -2.28819096       0.00000000
Si       1.41840288       3.24333085      -0.79088872       0.00000000
Si      -2.37271995       2.21631152      -1.62631953       0.00000000
Si      -0.84655872      -2.68113756      -2.37583054       0.00000000
