10
Lattice="16.28999089631971 0.0 0.0 0.0 16.28999089631971 0.0 0.0 0.0 34.395419527814205" Properties=species:S:1:pos:R:3:initial_magmoms:R:1 pbc="T T T"
Si       0.85586031       1.70732232       1.46639591       0.00000000
Si      -1.75864396      -0.87658771       1.50796968       0.00000000
Si       0.02612916       1.48512672      -2.16608715       0.00000000
Si       1.78377129      -1.97021360      -0.06139586       0.00000000
Si       2.20742532       0.40337298       2.89730808       0.00000000
Si       2.37346929       1.22381883      -2.56858257       0.00000000
Si      -0.51781023      -2.30939162       2.91832025       0.00000000
Si       1.72276524       3.41140293       0.11044375       0.00000000
Si      -1.72619103      -2.79874322      -2.16261321       0.00000000
Si       3.55881114      -1.03360050       1.36653908       0.00000000
