10
Lattice="16.28999089631971 0.0 0.0 0.0 16.28999089631971 0.0 0.0 0.0 34.395419527814205" Properties=species:S:1:pos:R:3:initial_magmoms:R:1 pbc="T T T"
Si      -1.96507899       0.99939150      -0.77754329       0.00000000
Si       0.26749809      -2.34610209      -0.03883245       0.00000000
Si       0.57375009       0.82455093       2.15552775       0.00000000
Si       1.56507804       0.90417645      -1.54941133       0.00000000
Si       0.14664258      -2.85809679       2.29011710       0.00000000
Si       2.02927788      -2.59724502      -1.62669788       0.00000000
Si      -1.32884046       3.31203393      -1.16517988       0.00000000
Si       2.93462721       2.37156336      -0.19502214       0.00000000
Si       0.45840060      -0.98082090       3.63645776       0.00000000
Si      -2.70280422      -0.22892337      -2.65611897       0.00000000
