10
Lattice="16.28999089631971 0.0 0.0 0.0 16.28999089631971 0.0 0.0 0.0 34.395419527814205" Properties=species:S:1:pos:R:3:initial_magmoms:R:1 pbc="T T T"
Si      -0.87615765       1.62308673      -1.38520750       0.00000000
Si      -1.24348086      -1.73371212      -1.01559412       0.00000000
Si       2.32839486      -0.41358681      -0.14631820       0.00000000
Si      -0.82795554       1.01799468       2.01607539       0.00000000
Si      -3.12846192       1.55023785      -0.74414532       0.00000000
Si      -3.52139301      -0.96174531      -0.14542392       0.00000000
Si       3.23309259       1.70333127       0.69912169       0.00000000
Si       0.25278822       3.62002896      -0.85792543       0.00000000
Si      -1.66498461      -0.80959671       3.26170367       0.00000000
Si      -1.12622544      -1.31313690      -3.38433920       0.00000000
