10
Lattice="16.28999089631971 0.0 0.0 0.0 16.28999089631971 0.0 0.0 0.0 34.395419527814205" Properties=species:S:1:pos:R:3:initial_magmoms:R:1 pbc="T T T"
Si       1.25187021      -1.38087072       1.53999730       0.00000000
Si      -1.10472264      -1.73636739      -1.29807496       0.00000000
Si      -1.45204173       1.32334475       1.52129994       0.00000000
Si       1.85891706       0.91841391      -1.45732584       0.00000000
Si       2.58429447       2.58521390       0.18755145       0.00000000
Si       2.50779663      -2.85055452       0.16550397       0.00000000
Si      -2.80740231       2.60692847       0.00039555       0.00000000
Si       0.65125791      -3.67780959      -1.15868349       0.00000000
Si       2.61021186      -0.02681334       2.91507191       0.00000000
Si       3.55322367      -1.21893183      -1.17359786       0.00000000
