10
Lattice="16.28999089631971 0.0 0.0 0.0 16.28999089631971 0.0 0.0 0.0 34.395419527814205" Properties=species:S:1:pos:R:3:initial_magmoms:R:1 pbc="T T T"
Si       1.35671265      -1.35324288      -1.36346959       0.00000000
Si      -1.36021500       1.36127385      -1.36257531       0.00000000
Si      -1.34679204      -1.35637056       1.38967891       0.00000000
Si       1.36332639       1.36117611       1.39511339       0.00000000
Si       2.71173114      -2.71275741      -0.00357713       0.00000000
Si       2.71220355       2.71643895       0.00006879       0.00000000
Si      -2.71494027      -2.71432125      -0.00165098       0.00000000
Si      -0.00153126      -2.71164969      -2.72036965       0.00000000
Si       2.71352304       0.00309510      -2.72057602       0.00000000
Si      -2.71736748       0.00394218      -2.72071360       0.00000000
