10
Lattice="16.28999089631971 0.0 0.0 0.0 16.28999089631971 0.0 0.0 0.0 34.395419527814205" Properties=species:S:1:pos:R:3:initial_magmoms:R:1 pbc="T T T"
Si       0.00777033       2.37562187       0.25411350       0.00000000
Si      -0.98336214      -1.20471066       1.88160248       0.00000000
Si       2.45864970      -0.35971578       0.07532601       0.00000000
Si      -1.79452269      -0.09317880      -1.72324588       0.00000000
Si      -0.54066510       1.18875853      -3.22880302       0.00000000
Si      -3.29388687       1.15819458      -0.28675477       0.00000000
Si       0.25433577       3.16036493      -1.96497702       0.00000000
Si      -3.21688404      -0.16058682       2.02424036       0.00000000
Si      -0.86328855      -3.50378352       1.25106529       0.00000000
Si      -2.22868377       3.24534986       0.20699175       0.00000000
