10
Lattice="16.28999089631971 0.0 0.0 0.0 16.28999089631971 0.0 0.0 0.0 34.395419527814205" Properties=species:S:1:pos:R:3:initial_magmoms:R:1 pbc="T T T"
Si       2.29027626      -0.40869981      -0.27471637       0.00000000
Si      -0.23654709       2.31087564       0.32507129       0.00000000
Si      -0.98093493      -0.86758911      -1.98891625       0.00000000
Si      -0.91388529      -1.34293131       2.18080840       0.00000000
Si       2.67302610      -1.70074116       1.66769724       0.00000000
Si      -2.57839749       2.59847396       0.07597952       0.00000000
Si      -3.31439598      -0.87661377      -1.47415411       0.00000000
Si      -0.22074579      -3.20155515      -2.01932181       0.00000000
Si       0.61175466       3.43646414      -1.53665062       0.00000000
Si      -3.84364179       0.64057167       0.26584235       0.00000000
