10
Lattice="16.28999089631971 0.0 0.0 0.0 16.28999089631971 0.0 0.0 0.0 34.395419527814205" Properties=species:S:1:pos:R:3:initial_magmoms:R:1 pbc="T T T"
Si      -1.35666541      -1.35759231       1.35727841       0.00000000
Si       1.35739683      -1.35754344      -1.35755357       0.00000000
Si      -1.35764444       1.35778779      -1.35762236       0.00000000
Si       1.35845568       1.35764118       1.35758797       0.00000000
Si       2.71456560      -0.00127062      -2.71441924       0.00000000
Si      -2.71449426      -2.71497285      -0.00041275       0.00000000
Si      -2.71403522       0.00037467      -2.71593263       0.00000000
Si       2.71487511      -2.71511946      -0.00041275       0.00000000
Si       0.00003258       2.71461447      -2.71538231       0.00000000
Si      -0.00133578      -2.71583622       2.71428165       0.00000000
