10
Lattice="16.28999089631971 0.0 0.0 0.0 16.28999089631971 0.0 0.0 0.0 34.395419527814205" Properties=species:S:1:pos:R:3:initial_magmoms:R:1 pbc="T T T"
Si      -1.35639078      -1.35741312      -1.35831027       0.00000000
Si      -1.35748629       1.35726651       1.35741599       0.00000000
Si       1.35767702       1.35682668      -1.35775994       0.00000000
Si       1.35764444      -1.35778779       1.35762236       0.00000000
Si       0.00307718      -2.71394658      -2.71486638       0.00000000
Si      -2.71473243      -2.71485882      -0.00003440       0.00000000
Si      -2.71478130       0.00140094       2.71483198       0.00000000
Si       0.00054409       2.71552671       2.71445363       0.00000000
Si       2.71528562       2.71476108      -0.00003440       0.00000000
Si      -2.71520484       2.71507059      -0.00003440       0.00000000
