10
Lattice="16.28999089631971 0.0 0.0 0.0 16.28999089631971 0.0 0.0 0.0 34.395419527814205" Properties=species:S:1:pos:R:3:initial_magmoms:R:1 pbc="T T T"
Si       1.52858844      -0.11692962      -1.73734801       0.00000000
Si      -1.54813644       1.74275307      -0.24513629       0.00000000
Si      -1.91852217      -1.36408876      -0.15457310       0.00000000
Si       1.57389993      -0.36711144       1.73824229       0.00000000
Si       2.05449873      -2.58643565       0.84774438       0.00000000
Si      -2.39392953      -1.51299076       2.12130429       0.00000000
Si       0.06828768      -0.91714329      -3.41845947       0.00000000
Si       3.07893285      -1.74359689      -1.04269773       0.00000000
Si      -0.34757973       3.64923693      -0.59232385       0.00000000
Si       0.51091956      -0.33137118       3.83189264       0.00000000
