10
Lattice="16.28999089631971 0.0 0.0 0.0 16.28999089631971 0.0 0.0 0.0 34.395419527814205" Properties=species:S:1:pos:R:3:initial_magmoms:R:1 pbc="T T T"
Si       1.35532963      -1.35824391       1.35700324       0.00000000
Si       1.35666541       1.35759231      -1.35727841       0.00000000
Si      -1.35782886      -1.35738054      -1.35769115       0.00000000
Si      -1.35802141       1.35557235       1.36058037       0.00000000
Si       2.71456723      -2.71428215      -0.00103186       0.00000000
Si       2.71406224       0.00004887      -2.71483198       0.00000000
Si      -0.00045938      -2.71475293      -2.71486638       0.00000000
Si      -2.71522276      -2.71471058      -0.00058472       0.00000000
Si      -0.00097903       2.71538010      -2.71490077       0.00000000
Si       2.71512109       2.71523349       0.00030956       0.00000000
