10
Lattice="16.28999089631971 0.0 0.0 0.0 16.28999089631971 0.0 0.0 0.0 34.395419527814205" Properties=species:S:1:pos:R:3:initial_magmoms:R:1 pbc="T T T"
Si       1.36501796       1.35231435       1.38155127       0.00000000
Si      -1.35387819      -1.36080144       1.38437170       0.00000000
Si       1.26296111      -1.54992834      -1.35570998       0.00000000
Si      -1.30702815       1.34806266      -1.53909270       0.00000000
Si      -2.69674434       2.68850160       0.00323661       0.00000000
Si      -2.71697652      -2.71088406      -0.00231825       0.00000000
Si       2.72762108       2.70822879      -0.00503893       0.00000000
Si       0.00440731       2.70847314       2.74264757       0.00000000
Si      -2.70796815      -0.00506619       2.74330109       0.00000000
Si       0.00785178      -2.71984356       2.74213164       0.00000000
