10
Lattice="16.28999089631971 0.0 0.0 0.0 16.28999089631971 0.0 0.0 0.0 34.395419527814205" Properties=species:S:1:pos:R:3:initial_magmoms:R:1 pbc="T T T"
Si       1.35802141      -1.35557235      -1.36058037       0.00000000
Si      -1.35773892       1.36120869      -1.36064916       0.00000000
Si       1.36271781       1.34930070       1.37561118       0.00000000
Si      -1.35865116      -1.36267479       1.39838096       0.00000000
Si       2.71335104      -2.71381626      -0.00357713       0.00000000
Si      -2.71526607      -2.71347417       0.00251087       0.00000000
Si       0.00019255      -2.71295289      -2.71827152       0.00000000
Si       2.71468682       0.00201996      -2.71785878       0.00000000
Si      -2.71524978       0.00244350      -2.71803076       0.00000000
Si       2.71558277       2.71772586      -0.00041275       0.00000000
