10
Lattice="16.28999089631971 0.0 0.0 0.0 16.28999089631971 0.0 0.0 0.0 34.395419527814205" Properties=species:S:1:pos:R:3:initial_magmoms:R:1 pbc="T T T"
Si      -1.20055671      -1.90648386       0.34718756       0.00000000
Si       1.59773949       0.20253357       1.64286374       0.00000000
Si      -1.66475655       1.59493761       0.42447411       0.00000000
Si       0.96363495       0.66313332      -2.10923149       0.00000000
Si       1.82656512       2.47176315       0.96155889       0.00000000
Si      -2.59530651       1.42977330      -1.82202958       0.00000000
Si      -0.29520738       3.06232452       1.77886330       0.00000000
Si       1.72188558       2.79197568      -1.41877745       0.00000000
Si      -2.57492772      -2.15441766      -1.56657465       0.00000000
Si       0.34757973      -3.64923693       0.59232385       0.00000000
