10
Lattice="16.28999089631971 0.0 0.0 0.0 16.28999089631971 0.0 0.0 0.0 34.395419527814205" Properties=species:S:1:pos:R:3:initial_magmoms:R:1 pbc="T T T"
Si      -1.36225125      -1.75003470      -0.75642449       0.00000000
Si      -0.67170186       0.32213475       2.30033255       0.00000000
Si      -1.05011856       1.79916534      -1.30795535       0.00000000
Si       2.41178337      -0.51512238      -0.22006202       0.00000000
Si      -3.25940094      -1.12459644       0.44903245       0.00000000
Si       0.13269834       3.59642475      -0.38653594       0.00000000
Si      -0.52791003      -3.78291267       0.03577126       0.00000000
Si      -2.49127857      -1.20989088       2.66650639       0.00000000
Si       1.16491419       0.06897186       3.71708067       0.00000000
Si      -1.38639303      -2.10554766      -3.11736180       0.00000000
