10
Lattice="16.28999089631971 0.0 0.0 0.0 16.28999089631971 0.0 0.0 0.0 34.395419527814205" Properties=species:S:1:pos:R:3:initial_magmoms:R:1 pbc="T T T"
Si      -1.35650251      -1.35656787       1.35751918       0.00000000
Si      -1.35704334       1.35728001      -1.35714083       0.00000000
Si       1.35760860      -1.35717060      -1.35731280       0.00000000
Si       1.35798327       1.35775079       1.35669369       0.00000000
Si       2.71283886       0.00084525       2.71490077       0.00000000
Si      -2.71507861      -0.00018008      -2.71290584       0.00000000
Si      -0.00125433       2.71378904       2.71472879       0.00000000
Si      -0.00087966       2.71419629      -2.71445363       0.00000000
Si       2.71425609       0.00165926      -2.71469440       0.00000000
Si      -2.71441281       2.71465241       0.00003440       0.00000000
