10
Lattice="16.28999089631971 0.0 0.0 0.0 16.28999089631971 0.0 0.0 0.0 34.395419527814205" Properties=species:S:1:pos:R:3:initial_magmoms:R:1 pbc="T T T"
Si      -0.87182451       2.10408156      -0.41804216       0.00000000
Si       0.84069432      -0.64628946      -2.12034122       0.00000000
Si       1.84153563       0.28642707       1.52681353       0.00000000
Si      -2.18872440      -0.73867005       0.78676127       0.00000000
Si       1.84526604      -2.07045900       1.94079703       0.00000000
Si       1.07637804       3.33777213      -0.75914173       0.00000000
Si      -1.49224545       1.84078629      -2.78792229       0.00000000
Si      -0.99592173      -0.39312657      -3.53708934       0.00000000
Si       1.29505500      -3.56229720       0.07549799       0.00000000
Si       1.06355781       1.45595133       3.39097752       0.00000000
