10
Lattice="16.28999089631971 0.0 0.0 0.0 16.28999089631971 0.0 0.0 0.0 34.395419527814205" Properties=species:S:1:pos:R:3:initial_magmoms:R:1 pbc="T T T"
Si      -1.35767702      -1.35682668       1.35775994       0.00000000
Si       1.35760860       1.35793440       1.35772555       0.00000000
Si       1.35839052      -1.35676152      -1.35999565       0.00000000
Si      -1.35690161       1.35791811      -1.36113070       0.00000000
Si      -2.71406780      -2.71423980      -0.00055033       0.00000000
Si       2.71526607       2.71448415      -0.00017198       0.00000000
Si      -0.00003258      -2.71461447       2.71538231       0.00000000
Si       2.71495656       0.00061902       2.71538231       0.00000000
Si      -2.71516331       0.00043983       2.71517593       0.00000000
Si       2.71453302      -2.71588509       0.00096307       0.00000000
