10
Lattice="16.28999089631971 0.0 0.0 0.0 16.28999089631971 0.0 0.0 0.0 34.395419527814205" Properties=species:S:1:pos:R:3:initial_magmoms:R:1 pbc="T T T"
Si       0.44203567       0.11419290       2.34164147       0.00000000
Si      -1.74452609       1.29494097      -1.10357765       0.00000000
Si       1.27912990      -1.60270794      -1.40340269       0.00000000
Si      -1.65467045      -0.85468743       2.25503376       0.00000000
Si      -2.56803446       1.49420025       1.95926738       0.00000000
Si      -0.20650574       2.52346761      -2.56607171       0.00000000
Si       0.58086882      -3.64931838       0.11811394       0.00000000
Si       2.56280144      -0.18689517      -2.83304910       0.00000000
Si      -1.62904628      -3.51495846      -0.59314934       0.00000000
Si       0.80876918       2.34435906       3.04403072       0.00000000
