10
Lattice="16.28999089631971 0.0 0.0 0.0 16.28999089631971 0.0 0.0 0.0 34.395419527814205" Properties=species:S:1:pos:R:3:initial_magmoms:R:1 pbc="T T T"
Si       1.18102500       1.62422703       1.12751688       0.00000000
Si      -2.31022011       0.42573915       0.15808144       0.00000000
Si       0.53849853      -1.87229115       1.34190365       0.00000000
Si       0.83680101       0.24193908      -2.22879004       0.00000000
Si      -1.23266430      -0.17775648      -3.16799189       0.00000000
Si       3.24426753       0.50231844       1.07585493       0.00000000
Si       0.20909844      -0.46551933       3.48876375       0.00000000
Si      -2.61833080       1.29842703      -2.00112663       0.00000000
Si       2.86102899      -1.81222992       1.46070549       0.00000000
Si      -3.19746147      -1.41480279       1.33299523       0.00000000
