10
Lattice="16.28999089631971 0.0 0.0 0.0 16.28999089631971 0.0 0.0 0.0 34.395419527814205" Properties=species:S:1:pos:R:3:initial_magmoms:R:1 pbc="T T T"
Si       0.10560807       2.43141282      -0.21418040       0.00000000
Si       1.46821770      -0.14214654       2.03672591       0.00000000
Si      -2.45449901      -0.56345481       0.21091283       0.00000000
Si       0.32940009      -1.40677182      -2.14686010       0.00000000
Si       0.97192656       2.08974636      -2.36124687       0.00000000
Si      -0.20909844       0.46551933      -3.48876375       0.00000000
Si       2.65193055      -1.34671059      -2.02805826       0.00000000
Si      -2.17440549       2.88945504      -0.02070605       0.00000000
Si       3.61291023      -1.34602641       0.28582610       0.00000000
Si       0.08050518      -1.28687742       3.66170543       0.00000000
