10
Lattice="16.28999089631971 0.0 0.0 0.0 16.28999089631971 0.0 0.0 0.0 34.395419527814205" Properties=species:S:1:pos:R:3:initial_magmoms:R:1 pbc="T T T"
Si      -1.67356309      -1.58195448      -0.02276978       0.00000000
Si       2.05115535      -1.04370030      -0.14012702       0.00000000
Si      -0.26458055       1.31915835       1.90574807       0.00000000
Si      -0.07108956       1.38391436      -1.97247523       0.00000000
Si      -0.79191229      -2.22351984      -2.20319983       0.00000000
Si       1.79748747       2.59560692      -1.14560888       0.00000000
Si       1.71362655      -2.10634587      -2.27353850       0.00000000
Si      -3.50520794      -0.24210198      -0.67838124       0.00000000
Si       3.44354310       0.81506593      -0.77272793       0.00000000
Si      -1.81492496       2.94582563       1.21109779       0.00000000
