10
Lattice="16.28999089631971 0.0 0.0 0.0 16.28999089631971 0.0 0.0 0.0 34.185847837958455" Properties=species:S:1:pos:R:3:initial_magmoms:R:1 pbc="T T T"
Si       0.20461869       0.18665082       2.35079114       0.00000000
Si      -1.92314690       1.34674710      -0.65089891       0.00000000
Si       1.85038110       1.44348038      -0.68607616       0.00000000
Si       0.45685305      -2.37084660      -0.48701186       0.00000000
Si      -1.96828323      -1.32888933       2.31910084       0.00000000
Si       0.26093322      -2.17678383       2.80792455       0.00000000
Si       2.14653330      -2.70430290       1.13264614       0.00000000
Si      -1.11182834       2.18521295      -2.70273464       0.00000000
Si       2.61451242       0.56190726       2.65432745       0.00000000
Si      -1.07647578       2.24522694       2.84720411       0.00000000
