10
Lattice="16.28999089631971 0.0 0.0 0.0 16.28999089631971 0.0 0.0 0.0 34.185847837958455" Properties=species:S:1:pos:R:3:initial_magmoms:R:1 pbc="T T T"
Si      -0.20461869      -0.18665082      -2.35079114       0.00000000
Si       0.05631453      -2.36343465       0.45713341       0.00000000
Si       2.40989373       0.37525644       0.30353631       0.00000000
Si      -1.28109447       2.05857612       0.49641297       0.00000000
Si      -2.17290192      -1.51554015      -0.03169030       0.00000000
Si      -0.21786246      -1.77934041       2.71737580       0.00000000
Si      -2.11555461       0.00122175       2.74088030       0.00000000
Si       2.33847837       2.34728216      -1.02820832       0.00000000
Si       0.63506565       3.60144926       0.08208027       0.00000000
Si       1.64576241       1.25682956      -3.03686730       0.00000000
