10
Lattice="16.28999089631971 0.0 0.0 0.0 16.28999089631971 0.0 0.0 0.0 34.185847837958455" Properties=species:S:1:pos:R:3:initial_magmoms:R:1 pbc="T T T"
Si       1.35607734       1.35670288      -1.35731566       0.00000000
Si       1.35692442      -1.35655653       1.35663194       0.00000000
Si      -1.35780408       1.35777802       1.35693962       0.00000000
Si      -1.35944937      -1.35806539      -1.35762333       0.00000000
Si       2.71393029       0.00035512       2.71329807       0.00000000
Si       2.71349046       0.00181471      -2.71398179       0.00000000
Si       2.71425609      -2.71357258      -0.00030767       0.00000000
Si       0.00267156      -2.71244857      -2.71555434       0.00000000
Si      -2.71524978      -2.71406128      -0.00023930       0.00000000
Si      -0.00068418      -2.71510384       2.71428946       0.00000000
