10
Lattice="16.28999089631971 0.0 0.0 0.0 16.28999089631971 0.0 0.0 0.0 34.185847837958455" Properties=species:S:1:pos:R:3:initial_magmoms:R:1 pbc="T T T"
Si      -2.11012515      -1.05415263       0.10703595       0.00000000
Si       1.56960666      -1.52574813      -1.00851726       0.00000000
Si      -0.33837588       2.18904694      -0.96619516       0.00000000
Si       1.12024701       0.33782691       2.13046323       0.00000000
Si      -2.09350935      -2.10761064       2.27411224       0.00000000
Si       1.79665668       3.24074563      -0.94267528       0.00000000
Si       3.11961645      -0.34572902      -2.39290813       0.00000000
Si       0.62037207      -2.76232203      -2.79674577       0.00000000
Si       3.36523707       1.11826777       1.81920091       0.00000000
Si      -2.77048917      -2.23962480      -1.87044552       0.00000000
