10
Lattice="16.28999089631971 0.0 0.0 0.0 16.28999089631971 0.0 0.0 0.0 34.185847837958455" Properties=species:S:1:pos:R:3:initial_magmoms:R:1 pbc="T T T"
Si       2.13503256       1.05169869       0.02351988       0.00000000
Si      -0.95223195       0.33373323      -2.16447817       0.00000000
Si      -1.45640745       1.62137628       1.04065198       0.00000000
Si       0.33837588      -2.18904694       0.96619516       0.00000000
Si       2.21739480       1.57345110      -2.25001120       0.00000000
Si      -1.31675328       0.90355743       3.30984145       0.00000000
Si       0.04945644       2.45871486      -2.76577338       0.00000000
Si       1.81846899       3.11041260       1.02742205       0.00000000
Si       0.26104725      -1.14523261      -3.56247501       0.00000000
Si      -0.38556801       3.70186992       0.68693081       0.00000000
