10
Lattice="16.28999089631971 0.0 0.0 0.0 16.28999089631971 0.0 0.0 0.0 34.185847837958455" Properties=species:S:1:pos:R:3:initial_magmoms:R:1 pbc="T T T"
Si       2.25520389       0.38981644       0.30897187       0.00000000
Si      -1.03114397      -0.61465332       2.02404262       0.00000000
Si      -0.88550485      -1.99006689      -0.95156361       0.00000000
Si      -1.35455097       1.76027296      -1.07528226       0.00000000
Si      -2.71437731      -1.29495630       0.44670672       0.00000000
Si      -3.34673882       0.46063885      -0.93122302       0.00000000
Si      -1.20282591       3.28900801       0.89970365       0.00000000
Si       2.30510016       1.97601773       2.01648755       0.00000000
Si       0.02529837      -3.73659924       0.34637120       0.00000000
Si       2.96209215       1.79614354      -1.49115333       0.00000000
