10
Lattice="16.28999089631971 0.0 0.0 0.0 16.28999089631971 0.0 0.0 0.0 34.185847837958455" Properties=species:S:1:pos:R:3:initial_magmoms:R:1 pbc="T T T"
Si      -1.30225518       1.42728093      -1.31646355       0.00000000
Si       1.42975701      -1.29686319      -1.32415537       0.00000000
Si      -0.95711895      -1.83980889       1.09322984       0.00000000
Si       1.36754550       1.21270905       1.50096467       0.00000000
Si       3.07154466      -0.73790442       1.73370206       0.00000000
Si       0.06336810      -2.65189797      -2.66875389       0.00000000
Si      -2.65383648       0.06483420      -2.67319805       0.00000000
Si       2.77110819      -2.56767867       0.12518864       0.00000000
Si      -2.62674621       2.73882141       0.11606102       0.00000000
Si       0.87659748      -3.50435367       1.30425920       0.00000000
