10
Lattice="16.28999089631971 0.0 0.0 0.0 16.28999089631971 0.0 0.0 0.0 34.185847837958455" Properties=species:S:1:pos:R:3:initial_magmoms:R:1 pbc="T T T"
Si      -1.34345259       1.30463352      -1.34537796       0.00000000
Si       1.34513046       1.35110889       1.34079363       0.00000000
Si       1.35391077      -1.33001334      -1.37227882       0.00000000
Si      -1.36502055      -1.36950030       1.34154572       0.00000000
Si       0.24127119       2.16691209      -2.80542014       0.00000000
Si      -0.46275003      -2.18647638      -2.84770805       0.00000000
Si      -2.23681248      -0.33067071      -2.82805118       0.00000000
Si       2.70425403      -0.00623907       2.69910068       0.00000000
Si      -0.01138671       2.70840798       2.69903231       0.00000000
Si       2.70946683       2.70622512      -0.04403140       0.00000000
