10
Lattice="16.28999089631971 0.0 0.0 0.0 16.28999089631971 0.0 0.0 0.0 34.185847837958455" Properties=species:S:1:pos:R:3:initial_magmoms:R:1 pbc="T T T"
Si       1.58415363       0.73713879       1.51580134       0.00000000
Si      -0.58782465       1.91326050      -1.26327034       0.00000000
Si      -1.81266975      -1.17543753       1.02851599       0.00000000
Si       0.67468293      -1.39048182      -1.86815507       0.00000000
Si      -2.59418250       0.84958866      -1.88312848       0.00000000
Si      -2.71411763      -1.52350596      -1.17223338       0.00000000
Si       2.99545407       1.95157458       0.06813243       0.00000000
Si      -0.90332937      -3.10677993      -1.56595201       0.00000000
Si       2.90287800      -1.98376362      -1.44968587       0.00000000
Si      -2.74320668       0.19629450       2.75456041       0.00000000
