10
Lattice="16.28999089631971 0.0 0.0 0.0 16.28999089631971 0.0 0.0 0.0 34.185847837958455" Properties=species:S:1:pos:R:3:initial_magmoms:R:1 pbc="T T T"
Si       1.88822277      -1.36527209      -0.40944413       0.00000000
Si      -0.71710209       1.48045149      -1.72071143       0.00000000
Si       0.69271596       1.09045260       2.00865898       0.00000000
Si      -1.85038110      -1.44348038       0.68607616       0.00000000
Si       0.76413132      -0.88157312       3.34040362       0.00000000
Si       1.90483857      -2.41873010       1.75763216       0.00000000
Si      -2.96220944       0.74173257      -2.01665848       0.00000000
Si      -1.64576241      -1.25682956       3.03686730       0.00000000
Si       1.22785875      -2.55074426      -2.38692560       0.00000000
Si      -3.77352800      -0.09673328       0.03517726       0.00000000
