10
Lattice="16.28999089631971 0.0 0.0 0.0 16.28999089631971 0.0 0.0 0.0 34.185847837958455" Properties=species:S:1:pos:R:3:initial_magmoms:R:1 pbc="T T T"
Si      -2.31430401      -0.25055649       0.24323244       0.00000000
Si       0.94385889       1.89120384       1.03357550       0.00000000
Si       0.91323369      -1.72742418       1.31766006       0.00000000
Si       0.64001781      -0.32659821      -2.26054045       0.00000000
Si       2.33947206      -1.87582608      -1.99782206       0.00000000
Si       0.83258190       1.12094748       3.34853985       0.00000000
Si      -3.22510723       1.49597586      -1.05470237       0.00000000
Si       2.30101137      -0.64019700       2.87120259       0.00000000
Si       1.86022026      -3.25622439      -0.14881108       0.00000000
Si      -2.91811404       0.59710995       2.39912996       0.00000000
