10
Lattice="16.28999089631971 0.0 0.0 0.0 16.28999089631971 0.0 0.0 0.0 34.185847837958455" Properties=species:S:1:pos:R:3:initial_magmoms:R:1 pbc="T T T"
Si      -0.07141536       1.97202572      -1.33174463       0.00000000
Si       0.97308315      -0.34723764       2.18953641       0.00000000
Si      -2.40989373      -0.37525644      -0.30353631       0.00000000
Si       1.14070725      -1.53715698      -1.58277145       0.00000000
Si      -0.76413132       0.88157312      -3.34040362       0.00000000
Si       2.93016375      -2.10054663      -0.04170676       0.00000000
Si      -2.35357920      -2.73869109       0.15359710       0.00000000
Si      -0.46797912      -3.26621016      -1.52168131       0.00000000
Si      -1.77482808       3.22619282      -0.22145605       0.00000000
Si      -2.61451242      -0.56190726      -2.65432745       0.00000000
