10
Lattice="16.28999089631971 0.0 0.0 0.0 16.28999089631971 0.0 0.0 0.0 34.185847837958455" Properties=species:S:1:pos:R:3:initial_magmoms:R:1 pbc="T T T"
Si      -0.75843145       1.00217546      -1.97888309       0.00000000
Si      -2.20090022      -0.50329258       0.95713590       0.00000000
Si       1.28109447      -2.05857612      -0.49641297       0.00000000
Si       1.91616012       1.54287314      -0.41433271       0.00000000
Si       0.91031778       1.53306656       1.85082284       0.00000000
Si      -0.83446014      -2.05735437       2.24446732       0.00000000
Si       0.22947397      -0.26485259       3.43950985       0.00000000
Si      -0.84667112      -0.89847984      -3.49810302       0.00000000
Si      -0.89180745      -3.57411627      -0.52810327       0.00000000
Si       1.07647578      -2.24522694      -2.84720411       0.00000000
