10
Lattice="16.28999089631971 0.0 0.0 0.0 16.28999089631971 0.0 0.0 0.0 34.185847837958455" Properties=species:S:1:pos:R:3:initial_magmoms:R:1 pbc="T T T"
Si      -1.29226941       1.39009086      -1.48732451       0.00000000
Si       1.52754588       1.17187002       1.49518726       0.00000000
Si       1.39945761      -1.31124237      -1.50581907       0.00000000
Si      -1.27252593      -1.62360149       1.35116221       0.00000000
Si       2.10167064      -0.91614960       2.59692938       0.00000000
Si       0.46576368      -2.71797740       2.56011120       0.00000000
Si      -1.27461105       1.04531301       3.43123547       0.00000000
Si       2.61902475      -2.80788191      -0.16775005       0.00000000
Si       2.81958723       2.64124431      -0.05179159       0.00000000
Si      -2.65758318       2.83125087      -0.07705494       0.00000000
