10
Lattice="16.28999089631971 0.0 0.0 0.0 16.28999089631971 0.0 0.0 0.0 34.185847837958455" Properties=species:S:1:pos:R:3:initial_magmoms:R:1 pbc="T T T"
Si       1.83412368       1.04930064       1.05890723       0.00000000
Si      -1.55000979      -1.18001911       1.38439087       0.00000000
Si       0.77071248      -1.69646098      -1.54123563       0.00000000
Si      -0.99971730       1.79302711      -1.38063042       0.00000000
Si      -2.49924438      -2.41659301      -0.40383765       0.00000000
Si       0.73751346       2.73056548       2.28091523       0.00000000
Si      -0.00878031      -0.72837886      -3.63081256       0.00000000
Si       0.19419309       1.65244441      -3.34795869       0.00000000
Si       2.76174144       2.54446852      -0.48971254       0.00000000
Si      -0.60388659      -3.61675876      -1.15373882       0.00000000
