10
Lattice="16.28999089631971 0.0 0.0 0.0 16.28999089631971 0.0 0.0 0.0 34.185847837958455" Properties=species:S:1:pos:R:3:initial_magmoms:R:1 pbc="T T T"
Si       0.49189284       1.26656868      -1.93119381       0.00000000
Si       1.49262012      -1.84023473       0.23205366       0.00000000
Si      -2.24499006      -0.78044087       0.31126232       0.00000000
Si       0.86467320       1.49311371       1.74901732       0.00000000
Si      -1.69339437      -2.48562824       1.88039361       0.00000000
Si       1.58850306      -0.41469616      -3.15320181       0.00000000
Si      -1.18957725       2.66210040       2.15699146       0.00000000
Si      -3.08131866       1.03393119       1.77219534       0.00000000
Si       0.01003464      -3.67457018       0.69277659       0.00000000
Si       2.89544976       2.26351668       0.80958970       0.00000000
