10
Lattice="16.28999089631971 0.0 0.0 0.0 16.28999089631971 0.0 0.0 0.0 34.185847837958455" Properties=species:S:1:pos:R:3:initial_magmoms:R:1 pbc="T T T"
Si      -1.57797972       1.82596239       0.08269561       0.00000000
Si      -0.84233961      -1.72172987       1.47607193       0.00000000
Si       1.84010211       0.96112955       1.40125958       0.00000000
Si      -0.41497146      -1.22923430      -2.27069365       0.00000000
Si      -1.99914138      -0.28482155       2.88386986       0.00000000
Si      -1.80289575       2.29032513      -2.37889192       0.00000000
Si      -2.74413195      -2.57745986       0.22026197       0.00000000
Si      -3.38121756       0.95695768       1.40105105       0.00000000
Si       0.73057392       2.43041913       2.87731301       0.00000000
Si       3.23889183       2.19511008      -0.10252341       0.00000000
