10
Lattice="16.28999089631971 0.0 0.0 0.0 16.28999089631971 0.0 0.0 0.0 34.185847837958455" Properties=species:S:1:pos:R:3:initial_magmoms:R:1 pbc="T T T"
Si       1.35568638       1.35729909      -1.35765752       0.00000000
Si       1.35760860      -1.35747828       1.35717892       0.00000000
Si      -1.35764118       1.35796698       1.35731566       0.00000000
Si      -1.35884664      -1.35884664      -1.35697380       0.00000000
Si      -0.00143352      -2.71373481      -2.71363993       0.00000000
Si      -0.00099369      -2.71519439       2.71363993       0.00000000
Si       2.71410948      -0.00221544       2.71517830       0.00000000
Si       2.71448415      -2.71485068       0.00000000       0.00000000
Si       2.71521720       2.71453302       0.00010256       0.00000000
Si      -2.71435383       0.00162900      -2.71586201       0.00000000
