10
Lattice="16.28999089631971 0.0 0.0 0.0 16.28999089631971 0.0 0.0 0.0 34.185847837958455" Properties=species:S:1:pos:R:3:initial_magmoms:R:1 pbc="T T T"
Si      -1.35784318      -1.34806266       1.37065157       0.00000000
Si       1.35982404       1.35689184       1.37058320       0.00000000
Si      -1.25060611       1.36682874      -1.47634401       0.00000000
Si       1.20431970      -1.40864517      -1.47902760       0.00000000
Si       2.26209456       0.53991576      -2.81867058       0.00000000
Si      -2.44748779      -0.53520795      -2.71060905       0.00000000
Si       0.48803211       2.39572143      -2.79901370       0.00000000
Si      -2.69540921       2.69907381      -0.00319638       0.00000000
Si      -0.68862717      -2.35015830      -2.93579136       0.00000000
Si       2.70734913      -2.71422351      -0.02444289       0.00000000
