10
Lattice="16.28999089631971 0.0 0.0 0.0 16.28999089631971 0.0 0.0 0.0 34.185847837958455" Properties=species:S:1:pos:R:3:initial_magmoms:R:1 pbc="T T T"
Si       0.75815289       1.89882756       1.11268160       0.00000000
Si       1.39419594      -1.29842703      -1.44148127       0.00000000
Si      -1.32835176       1.41279912      -1.45443771       0.00000000
Si      -2.39370147      -0.73252872       1.57760939       0.00000000
Si      -0.38157696      -0.61678827       3.09652164       0.00000000
Si      -2.69413794      -2.56230297      -0.03090402       0.00000000
Si       2.69319312       2.74427856       0.00099139       0.00000000
Si      -2.71086777       2.72833065      -0.03582679       0.00000000
Si       0.02593368      -2.64637566      -2.82245355       0.00000000
Si      -2.68820838       0.06885783      -2.82847026       0.00000000
