10
Lattice="16.28999089631971 0.0 0.0 0.0 16.28999089631971 0.0 0.0 0.0 34.185847837958455" Properties=species:S:1:pos:R:3:initial_magmoms:R:1 pbc="T T T"
Si      -0.22297752       2.12292909       0.95805892       0.00000000
Si      -1.35962856      -0.84124818      -1.70895149       0.00000000
Si       1.12897845       0.86193648      -2.05022900       0.00000000
Si       2.23614459      -1.29272553      -1.84904517       0.00000000
Si      -1.03848750      -2.45757456       1.84155847       0.00000000
Si       0.19938960      -2.86951608      -1.66936425       0.00000000
Si      -0.21250305       1.19653308       3.18639629       0.00000000
Si       3.55869711      -0.68512482       0.40653833       0.00000000
Si      -1.70279370      -0.68849685       3.25774219       0.00000000
Si      -0.88314606       0.74619603      -3.56914125       0.00000000
