10
Lattice="16.28999089631971 0.0 0.0 0.0 16.28999089631971 0.0 0.0 0.0 34.185847837958455" Properties=species:S:1:pos:R:3:initial_magmoms:R:1 pbc="T T T"
Si       1.53311706       1.75397688      -0.07209799       0.00000000
Si      -0.08236224      -0.52175241       2.27353108       0.00000000
Si       0.24088023      -2.31519996      -0.55733219       0.00000000
Si      -2.16793836       0.88526376      -0.51576217       0.00000000
Si      -3.16962675      -1.23971787       0.08553304       0.00000000
Si      -2.21739480      -1.57345110       2.25001120       0.00000000
Si      -1.95634755      -2.71868371      -1.31246380       0.00000000
Si      -0.39892581       1.53696150       3.27743325       0.00000000
Si       1.13029794       2.84843682       1.98216494       0.00000000
Si       3.67986213       0.82951938       0.15086223       0.00000000
