10
Lattice="16.28999089631971 0.0 0.0 0.0 16.28999089631971 0.0 0.0 0.0 34.185847837958455" Properties=species:S:1:pos:R:3:initial_magmoms:R:1 pbc="T T T"
Si      -1.53311706      -1.75397688       0.07209799       0.00000000
Si       2.14674507      -0.92445750       0.22296022       0.00000000
Si      -0.40281912       1.09445994       2.05426293       0.00000000
Si      -0.16936713       1.16082540      -2.05419456       0.00000000
Si       0.61543620      -0.58956768      -3.39523775       0.00000000
Si      -1.61547930      -2.27572929       2.34562907       0.00000000
Si       2.61104265      -1.22582250      -2.23684965       0.00000000
Si      -3.70105542      -0.86871312      -0.44366418       0.00000000
Si       1.42508178       2.92542336      -2.09094437       0.00000000
Si      -1.93204287      -0.21701538       3.34953124       0.00000000
