10
Lattice="16.28999089631971 0.0 0.0 0.0 16.28999089631971 0.0 0.0 0.0 34.185847837958455" Properties=species:S:1:pos:R:3:initial_magmoms:R:1 pbc="T T T"
Si      -0.63402309       1.82524563       1.35164081       0.00000000
Si       2.17373760      -0.68883894       0.68928964       0.00000000
Si      -1.49029065      -1.88502993       0.07134590       0.00000000
Si      -0.01047447       0.92639601      -2.22833736       0.00000000
Si       0.21250305      -1.19653308      -3.18639629       0.00000000
Si      -2.81188206       2.30705496       0.66399209       0.00000000
Si       0.79682535       3.61362699       0.70101539       0.00000000
Si      -1.35795069      -2.71837746       2.29982001       0.00000000
Si       2.95854093      -2.43923202      -0.65175355       0.00000000
Si       2.63661795       2.82976848      -0.50225876       0.00000000
