10
Lattice="16.28999089631971 0.0 0.0 0.0 16.28999089631971 0.0 0.0 0.0 34.185847837958455" Properties=species:S:1:pos:R:3:initial_magmoms:R:1 pbc="T T T"
Si      -0.94237650      -1.62968418       1.38983808       0.00000000
Si       1.81258830       1.00958904       1.27157208       0.00000000
Si      -1.63812240       1.87253550       0.27398780       0.00000000
Si      -0.15410340      -1.39818699      -2.11548982       0.00000000
Si      -2.24513667      -0.19217313       2.75531049       0.00000000
Si      -0.78413544       0.30687102      -3.64479458       0.00000000
Si       0.52134516       2.50054758       2.77163424       0.00000000
Si      -1.82092878      -3.49071894      -0.03869840       0.00000000
Si       2.74150926       2.86357023       0.10067947       0.00000000
Si       2.96942265       1.76349024      -1.95136347       0.00000000
