10
Lattice="16.28999089631971 0.0 0.0 0.0 16.28999089631971 0.0 0.0 0.0 34.185847837958455" Properties=species:S:1:pos:R:3:initial_magmoms:R:1 pbc="T T T"
Si       1.33012737      -1.27008243       1.38660269       0.00000000
Si      -0.82934019      -1.89809451      -1.11104375       0.00000000
Si       1.85686452       0.84611889      -1.24283574       0.00000000
Si      -1.41292944       1.47952296       1.34466689       0.00000000
Si      -0.93535551       1.21979520      -2.88644064       0.00000000
Si      -2.14651701      -0.77441031      -2.67787267       0.00000000
Si      -0.05833449      -2.58844842       2.73027819       0.00000000
Si      -2.76848550      -2.55671550       0.01641947       0.00000000
Si       2.65494420       0.12281031       2.72726984       0.00000000
Si       2.62137051      -2.76104097      -0.11345947       0.00000000
