10
Lattice="16.28999089631971 0.0 0.0 0.0 16.28999089631971 0.0 0.0 0.0 34.185847837958455" Properties=species:S:1:pos:R:3:initial_magmoms:R:1 pbc="T T T"
Si      -1.35676152       1.35646830      -1.35700799       0.00000000
Si       1.35635427       1.35685926       1.35738403       0.00000000
Si      -1.35887922      -1.35633798       1.35776008       0.00000000
Si       1.35824391      -1.35839052      -1.35697380       0.00000000
Si       0.00244350       2.71171485       2.71319552       0.00000000
Si      -2.71378368       0.00000000       2.71381086       0.00000000
Si      -0.00050499       2.71389771      -2.71504155       0.00000000
Si      -2.71482624      -0.00094482      -2.71411853       0.00000000
Si      -2.71464705       2.71433754      -0.00061535       0.00000000
Si      -2.71461447      -2.71495656       0.00023930       0.00000000
