10
Lattice="16.28999089631971 0.0 0.0 0.0 16.28999089631971 0.0 0.0 0.0 34.185847837958455" Properties=species:S:1:pos:R:3:initial_magmoms:R:1 pbc="T T T"
Si      -1.35985662      -1.34394129      -1.37403255       0.00000000
Si       1.35637056       1.36777356      -1.37464790       0.00000000
Si      -1.38251601       1.31553153       1.41861092       0.00000000
Si       1.32835176      -1.41279912       1.45443771       0.00000000
Si       2.08650465       0.48602844       2.56711931       0.00000000
Si       0.27305298       2.21284989       2.86757889       0.00000000
Si      -2.70713736      -2.70428661      -0.02581033       0.00000000
Si      -0.00495216      -2.70027927      -2.73008333       0.00000000
Si       2.72254770      -2.71122615       0.01295644       0.00000000
Si      -2.71197549       2.72424186       0.00526462       0.00000000
