10
Lattice="16.28999089631971 0.0 0.0 0.0 16.28999089631971 0.0 0.0 0.0 34.185847837958455" Properties=species:S:1:pos:R:3:initial_magmoms:R:1 pbc="T T T"
Si      -1.15680177       1.43690832       1.40779793       0.00000000
Si       0.84233961       1.72172987      -1.47607193       0.00000000
Si      -1.90179234      -0.85572999      -1.25580996       0.00000000
Si       1.56110328      -1.29323052       1.37810409       0.00000000
Si      -2.53887795       2.67868755      -0.07502089       0.00000000
Si      -2.49603525       0.07612317       2.75998229       0.00000000
Si       2.68244172       2.68285941      -0.07481235       0.00000000
Si       0.42736815       0.49249557      -3.74676559       0.00000000
Si      -2.63292012      -2.76174144      -0.06681970       0.00000000
Si       0.21756924      -2.63867049       2.75912765       0.00000000
