10
Lattice="16.28999089631971 0.0 0.0 0.0 16.28999089631971 0.0 0.0 0.0 34.185847837958455" Properties=species:S:1:pos:R:3:initial_magmoms:R:1 pbc="T T T"
Si       1.36648665      -0.89215443      -1.68669649       0.00000000
Si       0.20297340       2.38082327       0.28285386       0.00000000
Si       0.77949279      -0.96808212       2.08957693       0.00000000
Si      -2.29433247      -0.69921567      -0.43515190       0.00000000
Si      -0.99093699       2.52140597       2.25018213       0.00000000
Si       0.00878031       0.72837886       3.63081256       0.00000000
Si      -0.06845058      -0.98306892      -3.57160263       0.00000000
Si      -3.42780696      -0.23767110       1.57545568       0.00000000
Si       2.96430759       0.81088266      -2.22823481       0.00000000
Si      -0.59510628      -2.88837990       2.47707373       0.00000000
