10
Lattice="16.28999089631971 0.0 0.0 0.0 16.28999089631971 0.0 0.0 0.0 34.185847837958455" Properties=species:S:1:pos:R:3:initial_magmoms:R:1 pbc="T T T"
Si       1.21956714      -1.49663953       1.33806902       0.00000000
Si      -1.33630128      -1.36811143      -1.36442632       0.00000000
Si       1.37924172       1.34512557      -1.36989606       0.00000000
Si      -1.39945761       1.31124237       1.50581907       0.00000000
Si      -2.69172702       2.70133323       0.01849455       0.00000000
Si       2.73240315       2.67859239      -0.00823879       0.00000000
Si      -2.69529453      -0.01446389      -2.72604940       0.00000000
Si       0.01980864       2.69851506      -2.72451104       0.00000000
Si       2.71894761      -2.72451457      -0.00943530       0.00000000
Si      -2.69535969      -2.75048083       0.01370853       0.00000000
