10
Lattice="16.28999089631971 0.0 0.0 0.0 16.28999089631971 0.0 0.0 0.0 34.185847837958455" Properties=species:S:1:pos:R:3:initial_magmoms:R:1 pbc="T T T"
Si      -0.37735785      -0.23943042      -2.27079621       0.00000000
Si       2.20090932       0.59758236       0.53152186       0.00000000
Si      -0.92761776      -1.49516788       1.54861977       0.00000000
Si      -0.32247684       2.39327793      -0.18272346       0.00000000
Si       0.14182074       2.09191293      -2.64253333       0.00000000
Si      -2.02422798       0.18609696       2.77062777       0.00000000
Si       1.67166351       2.28273399       2.17199906       0.00000000
Si      -2.76174144      -2.54446852       0.48971254       0.00000000
Si       3.26313365       1.21573899      -1.53979982       0.00000000
Si       3.44807565      -1.14588747       1.38244227       0.00000000
