10
Lattice="16.28999089631971 0.0 0.0 0.0 16.28999089631971 0.0 0.0 0.0 34.185847837958455" Properties=species:S:1:pos:R:3:initial_magmoms:R:1 pbc="T T T"
Si       1.24716633      -1.74346983       0.85092041       0.00000000
Si      -2.20090932      -0.59758236      -0.53152186       0.00000000
Si       1.06222433       0.61815663      -2.07132168       0.00000000
Si      -0.52924581       1.68515163       1.64047720       0.00000000
Si      -2.52338616       1.79569557      -0.71424532       0.00000000
Si      -0.04685004       2.70897813      -2.20837282       0.00000000
Si      -0.53282961       3.49669737      -0.00553811       0.00000000
Si       1.23390627      -3.28550471      -0.94698270       0.00000000
Si       3.49227368      -1.00475091       1.14686746       0.00000000
Si      -2.57826717      -0.83701278      -2.80231807       0.00000000
