10
Lattice="16.28999089631971 0.0 0.0 0.0 16.28999089631971 0.0 0.0 0.0 34.185847837958455" Properties=species:S:1:pos:R:3:initial_magmoms:R:1 pbc="T T T"
Si       1.31227353      -1.27389429      -1.46226627       0.00000000
Si       1.85508891       0.92005920       1.11452763       0.00000000
Si      -1.38883653       1.45388250      -1.43584060       0.00000000
Si      -1.29204135      -1.46937429       1.54697885       0.00000000
Si       2.52203409      -2.79466353      -0.07144846       0.00000000
Si       3.50875753      -0.92936079       1.03853245       0.00000000
Si       2.67632146       2.71679733      -0.10532666       0.00000000
Si      -0.04088790      -2.60736111      -2.82392354       0.00000000
Si      -2.81958723      -2.64124431       0.05179159       0.00000000
Si       2.67641610       0.10321344      -2.82002635       0.00000000
