10
Lattice="16.28999089631971 0.0 0.0 0.0 16.28999089631971 0.0 0.0 0.0 34.185847837958455" Properties=species:S:1:pos:R:3:initial_magmoms:R:1 pbc="T T T"
Si      -0.61462726       1.57260402       1.62987958       0.00000000
Si      -1.12175125      -2.05232823       0.39713722       0.00000000
Si      -1.33860373       0.48764115      -1.94592792       0.00000000
Si       0.31506489      -1.36177884      -2.02192310       0.00000000
Si       2.19610540       1.08139536      -0.49849831       0.00000000
Si       0.18069357       0.26756325       3.42152668       0.00000000
Si       3.49951717       0.06134814       1.29547343       0.00000000
Si       2.11797856      -0.95513157       2.95991492       0.00000000
Si      -2.70258172      -1.82138490       2.10718265       0.00000000
Si       2.08868914      -0.43886889      -3.27216863       0.00000000
