10
Lattice="16.28999089631971 0.0 0.0 0.0 16.28999089631971 0.0 0.0 0.0 34.185847837958455" Properties=species:S:1:pos:R:3:initial_magmoms:R:1 pbc="T T T"
Si       0.82123255       1.79673813      -1.21985429       0.00000000
Si      -1.85508891      -0.92005920      -1.11452763       0.00000000
Si       1.33860373      -0.48764115       1.94592792       0.00000000
Si       1.65366862      -1.84941999      -0.07599518       0.00000000
Si      -0.54281538      -2.19395349      -2.57679391       0.00000000
Si       2.18285253       0.54553581      -2.60995420       0.00000000
Si       0.21685248      -2.53996938       2.34306513       0.00000000
Si       2.56516091       2.75480190       0.06009875       0.00000000
Si       3.42729287      -0.92651004      -1.32624071       0.00000000
Si       0.72397647       1.08496287       3.57580750       0.00000000
