10
Lattice="16.28999089631971 0.0 0.0 0.0 16.28999089631971 0.0 0.0 0.0 34.185847837958455" Properties=species:S:1:pos:R:3:initial_magmoms:R:1 pbc="T T T"
Si       1.34403903       1.32396975      -1.37731781       0.00000000
Si       1.35222697      -1.35555606       1.35143569       0.00000000
Si      -1.36024758       1.35490446       1.35143569       0.00000000
Si      -1.32693453      -1.36700793      -1.38301318       0.00000000
Si      -0.21015729       2.51545293      -2.70316196       0.00000000
Si       2.71214232      -0.00001629       2.70977693       0.00000000
Si      -0.00184077      -2.71459818       2.70984530       0.00000000
Si      -0.00289962       2.71494027       2.70994786       0.00000000
Si      -2.71725345       0.00001629       2.71022135       0.00000000
Si       2.71301383      -2.71533123      -0.00919600       0.00000000
