10
Lattice="16.28999089631971 0.0 0.0 0.0 16.28999089631971 0.0 0.0 0.0 34.185847837958455" Properties=species:S:1:pos:R:3:initial_magmoms:R:1 pbc="T T T"
Si       1.45917675      -1.27622376      -1.26327034       0.00000000
Si      -1.24444034       1.47204585      -1.28371349       0.00000000
Si       1.80221157       0.92432718       1.15449091       0.00000000
Si      -1.77362425      -0.92290995       1.25024553       0.00000000
Si       0.10741626       1.52026425       2.77367031       0.00000000
Si       0.10642257      -2.60198541      -2.61159512       0.00000000
Si      -2.60596568       0.10966428      -2.60831328       0.00000000
Si      -2.60606032       2.72324817       0.10638642       0.00000000
Si      -3.42729287       0.92651004       1.32624071       0.00000000
Si       2.82269862       0.11223810      -2.60749282       0.00000000
