10
Lattice="16.28999089631971 0.0 0.0 0.0 16.28999089631971 0.0 0.0 0.0 34.185847837958455" Properties=species:S:1:pos:R:3:initial_magmoms:R:1 pbc="T T T"
Si       1.97635723      -0.01938510       1.20447065       0.00000000
Si      -1.63980027       1.16672238       1.16211436       0.00000000
Si       0.37064637       0.44675325      -2.27821454       0.00000000
Si      -0.87926904      -2.19771648      -0.16371612       0.00000000
Si      -2.77630470       1.68117687      -0.87303867       0.00000000
Si       1.19180476      -3.34230075       0.22548998       0.00000000
Si       3.07699271      -1.79124840       0.16142566       0.00000000
Si      -1.83790296       0.91893519      -2.96989719       0.00000000
Si       2.52927404       2.30529564       1.29058485       0.00000000
Si      -3.00612402      -1.93166820       0.88708906       0.00000000
