10
Lattice="16.28999089631971 0.0 0.0 0.0 16.28999089631971 0.0 0.0 0.0 34.185847837958455" Properties=species:S:1:pos:R:3:initial_magmoms:R:1 pbc="T T T"
Si       1.36161998      -1.25120232      -1.39009991       0.00000000
Si      -0.82123255      -1.79673813       1.21985429       0.00000000
Si       1.74392836       0.95806377       1.27995304       0.00000000
Si      -1.37204632       1.45378476      -1.33649647       0.00000000
Si       0.00009464      -2.61358389      -2.71469969       0.00000000
Si       2.60606032      -2.72324817      -0.10638642       0.00000000
Si      -2.67632146      -2.71679733       0.10532666       0.00000000
Si       0.84197061       2.59115256       2.69012006       0.00000000
Si       2.71155436       0.10572210      -2.71832340       0.00000000
Si      -2.71582471       0.10430487      -2.71487062       0.00000000
