10
Lattice="16.28999089631971 0.0 0.0 0.0 16.28999089631971 0.0 0.0 0.0 34.185847837958455" Properties=species:S:1:pos:R:3:initial_magmoms:R:1 pbc="T T T"
Si       1.34021088       1.36155078       1.35936681       0.00000000
Si      -1.35840681       1.35519768      -1.35663194       0.00000000
Si       1.35485559      -1.35832536      -1.35717892       0.00000000
Si      -1.34547255      -1.37011932       1.36675096       0.00000000
Si      -0.15916959       2.58942582       2.70687113       0.00000000
Si       2.63417445      -0.08832438       2.67302712       0.00000000
Si       2.71443650      -0.00055386      -2.71353737       0.00000000
Si      -0.00084708       2.71445665      -2.71360575       0.00000000
Si       2.71785618       2.71135277       0.00488858       0.00000000
Si      -0.00089595      -2.71568961      -2.71381086       0.00000000
