10
Lattice="16.28999089631971 0.0 0.0 0.0 16.28999089631971 0.0 0.0 0.0 34.185847837958455" Properties=species:S:1:pos:R:3:initial_magmoms:R:1 pbc="T T T"
Si      -1.43914005       1.17493254       1.42332857       0.00000000
Si       1.34547255       1.37011932      -1.36675096       0.00000000
Si      -1.36814823      -1.34843733      -1.36736631       0.00000000
Si       1.29702609      -1.38473145       1.46271069       0.00000000
Si      -0.63801414      -2.23018245       2.57440090       0.00000000
Si       0.04953789       2.38112559       2.81161663       0.00000000
Si      -2.45146581      -0.50336100       2.87486048       0.00000000
Si       2.69114058      -2.71073745       0.01425551       0.00000000
Si       2.68568343       2.73167010      -0.00738415       0.00000000
Si       2.70032814       0.01179396      -2.72392988       0.00000000
