10
Lattice="16.28999089631971 0.0 0.0 0.0 16.28999089631971 0.0 0.0 0.0 34.185847837958455" Properties=species:S:1:pos:R:3:initial_magmoms:R:1 pbc="T T T"
Si      -1.34021088      -1.36155078      -1.35936681       0.00000000
Si       1.29396357      -1.44987516       1.31366031       0.00000000
Si       1.37764530       1.34980199      -1.35447823       0.00000000
Si      -1.49938047       1.22787504       1.34750432       0.00000000
Si      -0.07920198       2.38135921       2.83852090       0.00000000
Si      -2.69861769      -0.00635310      -2.71599876       0.00000000
Si      -2.68568343      -2.73167010       0.00738415       0.00000000
Si       0.01461213       2.71030155      -2.71558853       0.00000000
Si       0.01464471      -2.71987614      -2.71654573       0.00000000
Si      -2.71894761       2.72451457       0.00943530       0.00000000
