10
Lattice="16.28999089631971 0.0 0.0 0.0 16.28999089631971 0.0 0.0 0.0 34.185847837958455" Properties=species:S:1:pos:R:3:initial_magmoms:R:1 pbc="T T T"
Si       1.35549090       1.35680245       1.35717892       0.00000000
Si       1.35741312      -1.35704218      -1.35745240       0.00000000
Si      -1.35783177       1.35798347      -1.35799938       0.00000000
Si      -1.35925552      -1.35974632       1.35608497       0.00000000
Si       2.71321353      -0.00104629      -2.71483644       0.00000000
Si       0.00083079       2.71588855       2.71285366       0.00000000
Si       0.00071676      -2.71364080       2.71575946       0.00000000
Si       2.71507059      -2.71445530      -0.00058116       0.00000000
Si       2.71485882       2.71479712      -0.00027349       0.00000000
Si      -2.71492995      -2.71478110      -0.00020512       0.00000000
