10
Lattice="16.28999089631971 0.0 0.0 0.0 16.28999089631971 0.0 0.0 0.0 34.185847837958455" Properties=species:S:1:pos:R:3:initial_magmoms:R:1 pbc="T T T"
Si      -1.28567196       1.41070110       1.39577134       0.00000000
Si       1.38971619      -1.32532182       1.38330376       0.00000000
Si      -1.84787244      -0.88526376      -1.18647726       0.00000000
Si       1.75296690       0.92209545      -1.41078035       0.00000000
Si       3.35678256      -0.87579927      -1.26665030       0.00000000
Si      -2.68163048       2.68780017       0.03206976       0.00000000
Si       2.71969695       2.65861827      -0.08586122       0.00000000
Si       2.62565478      -2.78181072      -0.07766003       0.00000000
Si       0.04588893      -2.65805559       2.75245798       0.00000000
Si      -2.67123583       0.05589099       2.74524477       0.00000000
