10
Lattice="16.28999089631971 0.0 0.0 0.0 16.28999089631971 0.0 0.0 0.0 34.185847837958455" Properties=species:S:1:pos:R:3:initial_magmoms:R:1 pbc="T T T"
Si      -1.35567443      -1.35503478      -1.35629009       0.00000000
Si      -1.35225475       1.35687185       1.36213587       0.00000000
Si       1.35997228      -1.35389448       1.35967449       0.00000000
Si       1.35925552       1.35974632      -1.35608497       0.00000000
Si       0.00143189      -2.71290402      -2.71377668       0.00000000
Si      -2.71361005       0.00205254      -2.71360575       0.00000000
Si      -2.71525534      -2.71280628       0.00006837       0.00000000
Si       2.71611478      -2.71251306       0.00133325       0.00000000
Si       2.71666864       0.00270414      -2.71353737       0.00000000
Si       2.71474642       2.71654876       0.00109395       0.00000000
