10
Lattice="16.28999089631971 0.0 0.0 0.0 16.28999089631971 0.0 0.0 0.0 34.185847837958455" Properties=species:S:1:pos:R:3:initial_magmoms:R:1 pbc="T T T"
Si       0.02171946      -2.21063445      -0.74248284       0.00000000
Si      -0.33717531      -0.12311982       2.35974784       0.00000000
Si      -1.84026405       1.14940611      -1.04858310       0.00000000
Si       2.18842304       0.78740973      -0.79707767       0.00000000
Si      -0.86060559       3.14728406      -1.75657240       0.00000000
Si       0.54832954       1.86694707       3.31131144       0.00000000
Si       0.51342007      -2.19963870      -3.11891338       0.00000000
Si       2.09938190      -3.23991810      -0.21923396       0.00000000
Si       0.39311842       3.88935872       0.06543175       0.00000000
Si      -2.23407480       0.36888705      -3.19617344       0.00000000
