10
Lattice="16.28999089631971 0.0 0.0 0.0 16.28999089631971 0.0 0.0 0.0 34.33025523377368" Properties=species:S:1:pos:R:3:initial_magmoms:R:1 pbc="T T T"
Si       0.66676599       1.73543886       1.53665741       0.00000000
Si       1.24227540       1.37440359      -1.56189016       0.00000000
Si      -1.45456668      -1.38059379      -1.47905121       0.00000000
Si       2.19084210      -2.46249414       0.12070524       0.00000000
Si       1.16015751      -0.63462582       3.24002264       0.00000000
Si       2.13913764       3.03222060      -0.05218202       0.00000000
Si       2.43046800      -0.19025091      -2.92487072       0.00000000
Si      -0.29520738       2.53710234      -2.90193810       0.00000000
Si      -2.77281864      -2.75734477      -0.08791983       0.00000000
Si       3.27538143      -0.47298015       2.25330189       0.00000000
