10
Lattice="16.28999089631971 0.0 0.0 0.0 16.28999089631971 0.0 0.0 0.0 34.33025523377368" Properties=species:S:1:pos:R:3:initial_magmoms:R:1 pbc="T T T"
Si      -0.98143992      -0.77012604       1.96987115       0.00000000
Si       0.75839724       2.21260554       0.06615444       0.00000000
Si       2.04535611      -1.21694445      -0.28930122       0.00000000
Si      -1.83710475      -0.15711705      -1.62924616       0.00000000
Si       2.35069587       2.15164836      -1.85620361       0.00000000
Si       0.78788214      -0.96355350       3.51912777       0.00000000
Si      -2.72640843       2.10025341      -1.49068918       0.00000000
Si      -1.19431764       3.55253949      -0.17995930       0.00000000
Si       3.75996006       0.48052242      -0.63153973       0.00000000
Si      -2.13658011      -2.82133026       1.60102668       0.00000000
