10
Lattice="16.28999089631971 0.0 0.0 0.0 16.28999089631971 0.0 0.0 0.0 34.33025523377368" Properties=species:S:1:pos:R:3:initial_magmoms:R:1 pbc="T T T"
Si       1.58241060       0.83074113      -1.50438696       0.00000000
Si      -1.07885412      -1.67902659      -1.33925834       0.00000000
Si      -1.75932000       1.81258830      -0.11500642       0.00000000
Si       1.27925370       0.12699684       2.33239884       0.00000000
Si       2.73711096       2.27338353      -0.01881299       0.00000000
Si       0.26352333       2.21723190      -2.91340441       0.00000000
Si      -1.32960609       2.81729034       2.14904085       0.00000000
Si       2.68004709      -2.70308115      -0.03944549       0.00000000
Si      -2.45645055      -0.49459698      -2.89689155       0.00000000
Si      -2.91051801      -2.53441449       0.05729723       0.00000000
