10
Lattice="16.28999089631971 0.0 0.0 0.0 16.28999089631971 0.0 0.0 0.0 34.33025523377368" Properties=species:S:1:pos:R:3:initial_magmoms:R:1 pbc="T T T"
Si       0.74492541       1.79809020      -1.37763958       0.00000000
Si      -1.93003920      -0.94302810      -1.23942590       0.00000000
Si       0.42971391       1.00470204       2.26404727       0.00000000
Si       1.75932000      -1.81258830       0.11500642       0.00000000
Si       2.02284333       0.40464360      -2.79839799       0.00000000
Si      -0.69713055      -2.30718528      -2.78188513       0.00000000
Si       3.34173060      -0.98184717      -1.38938054       0.00000000
Si       2.82952413       1.53981225       1.93684542       0.00000000
Si       0.68046588      -3.49161489      -1.22425192       0.00000000
Si       2.12911929       3.12005628       0.09588446       0.00000000
