10
Lattice="16.28999089631971 0.0 0.0 0.0 16.28999089631971 0.0 0.0 0.0 34.33025523377368" Properties=species:S:1:pos:R:3:initial_magmoms:R:1 pbc="T T T"
Si      -1.10408733       1.89198576       0.82437288       0.00000000
Si      -1.02434778      -0.51756588      -2.04515744       0.00000000
Si       2.33512263       0.36748611       0.00518387       0.00000000
Si      -0.02088378      -1.56328614       1.78984319       0.00000000
Si      -0.35088660       1.68823044       3.00705740       0.00000000
Si       3.28526946      -1.60728543      -0.84308288       0.00000000
Si       3.00716658       0.21537009       2.25646028       0.00000000
Si      -2.97706266       0.82236807      -2.29127118       0.00000000
Si      -1.13523381      -0.59209263       3.63162808       0.00000000
Si      -1.78274502      -2.73017142      -2.11131188       0.00000000
