10
Lattice="16.28999089631971 0.0 0.0 0.0 16.28999089631971 0.0 0.0 0.0 34.33025523377368" Properties=species:S:1:pos:R:3:initial_magmoms:R:1 pbc="T T T"
Si       1.78570980      -1.40375817       0.60778318       0.00000000
Si      -1.87960210       0.13678713       1.42068975       0.00000000
Si      -0.86329507      -1.60403558      -1.56539185       0.00000000
Si       0.66186270       2.36662749      -0.65759641       0.00000000
Si       0.75966786       1.12847346      -2.90447854       0.00000000
Si      -3.04056827       1.67115852       0.06303038       0.00000000
Si       1.17889101       2.79596673       1.97543265       0.00000000
Si      -1.02192383      -0.33769170      -3.52492959       0.00000000
Si       3.48661386       0.05027094       1.23733175       0.00000000
Si       2.64557745      -2.11760878      -1.48605459       0.00000000
