10
Lattice="16.28999089631971 0.0 0.0 0.0 16.28999089631971 0.0 0.0 0.0 34.33025523377368" Properties=species:S:1:pos:R:3:initial_magmoms:R:1 pbc="T T T"
Si       1.31523831       1.12567158       1.60198793       0.00000000
Si      -0.61766793      -2.05947954       1.01978080       0.00000000
Si       1.64296053      -0.40065255      -1.67521440       0.00000000
Si      -1.76761161       1.28901141      -0.95506823       0.00000000
Si       3.20732181      -0.37939410       1.66670049       0.00000000
Si       3.40904088      -1.39082391      -0.45659265       0.00000000
Si       0.01498680       1.16660835       3.60818050       0.00000000
Si       2.40305193       1.71819119      -2.45794466       0.00000000
Si       1.83513366       3.30752879       0.81101840       0.00000000
Si       0.13553280      -2.26323486       3.20246532       0.00000000
