10
Lattice="16.28999089631971 0.0 0.0 0.0 16.28999089631971 0.0 0.0 0.0 34.33025523377368" Properties=species:S:1:pos:R:3:initial_magmoms:R:1 pbc="T T T"
Si      -1.35625653      -1.35746918       1.35642347       0.00000000
Si       1.35764118      -1.35745289      -1.35700709       0.00000000
Si       1.35762489       1.35799629       1.35704142       0.00000000
Si      -1.35860229       1.35733329      -1.35693843       0.00000000
Si      -2.71492398       0.00104389      -2.71246931       0.00000000
Si      -0.00231318       2.71402802       2.71415150       0.00000000
Si       0.00226431      -2.71382345      -2.71452913       0.00000000
Si      -0.00213399      -2.71432844       2.71459779       0.00000000
Si       0.00180819       2.71195919      -2.71720689       0.00000000
Si      -2.71477737      -2.71488230      -0.00010299       0.00000000
