10
Lattice="16.28999089631971 0.0 0.0 0.0 16.28999089631971 0.0 0.0 0.0 34.33025523377368" Properties=species:S:1:pos:R:3:initial_magmoms:R:1 pbc="T T T"
Si       0.99002475       1.57641963       1.48049308       0.00000000
Si      -0.76009140      -2.11884374       0.78273026       0.00000000
Si      -1.99759383       1.25590736      -0.73635006       0.00000000
Si       1.38841299       0.21755995      -2.22460178       0.00000000
Si      -0.56791827       1.58933760       3.26896306       0.00000000
Si      -0.92686842       3.54488694      -0.39380258       0.00000000
Si       3.31657884       1.05197122      -1.29960687       0.00000000
Si       1.00598895      -3.10901510       2.00135201       0.00000000
Si      -2.40305193      -1.71819119       2.45794466       0.00000000
Si      -1.55773125      -3.02277584      -1.82472275       0.00000000
