10
Lattice="16.28999089631971 0.0 0.0 0.0 16.28999089631971 0.0 0.0 0.0 34.33025523377368" Properties=species:S:1:pos:R:3:initial_magmoms:R:1 pbc="T T T"
Si      -1.99834317      -1.22950404       0.27828120       0.00000000
Si       1.67570343      -1.44809955      -0.83068965       0.00000000
Si      -0.17352108       0.50300262       2.31190367       0.00000000
Si       0.32156460       2.10856131      -1.07738700       0.00000000
Si      -3.28901616       0.63109089       0.92149323       0.00000000
Si       2.02429314       3.16056951       0.15397128       0.00000000
Si      -1.46549727      -2.86668162       1.94614893       0.00000000
Si       0.75320073      -2.30216144      -2.91968685       0.00000000
Si      -2.20126770       1.73120346       2.66911018       0.00000000
Si       3.66643917      -0.20611737      -1.25902848       0.00000000
