10
Lattice="16.28999089631971 0.0 0.0 0.0 16.28999089631971 0.0 0.0 0.0 34.33025523377368" Properties=species:S:1:pos:R:3:initial_magmoms:R:1 pbc="T T T"
Si      -1.99392858      -0.79849833       0.98926119       0.00000000
Si       0.99210987       1.39424481       1.63638686       0.00000000
Si       1.80581166      -1.51123049      -0.31813865       0.00000000
Si      -0.53284590       1.63717758      -1.66786772       0.00000000
Si       1.29197619       3.36968424       0.36575474       0.00000000
Si      -0.88511715       1.81332135       3.07698817       0.00000000
Si      -2.21757399      -1.48252751      -2.65180772       0.00000000
Si       1.46549727       2.86668162      -1.94614893       0.00000000
Si       2.19970386      -2.64582899       1.67518007       0.00000000
Si      -3.51782550      -1.44159074      -0.64561514       0.00000000
