10
Lattice="16.28999089631971 0.0 0.0 0.0 16.28999089631971 0.0 0.0 0.0 34.33025523377368" Properties=species:S:1:pos:R:3:initial_magmoms:R:1 pbc="T T T"
Si      -0.99210987      -1.39424481      -1.63638686       0.00000000
Si       0.29986632       1.97543943      -1.27063212       0.00000000
Si      -1.87722702       0.41907654       1.44060131       0.00000000
Si       1.93308543      -0.79655656       1.25772393       0.00000000
Si       0.93877641      -2.79051677       2.03101336       0.00000000
Si       0.81370179      -2.90547530      -1.95452551       0.00000000
Si       2.15951643       2.90597310      -0.36228739       0.00000000
Si      -1.52495577       0.24293277      -3.30425458       0.00000000
Si      -2.19589200       2.69495244       1.32926823       0.00000000
Si      -1.72788030       3.20364027      -0.91342561       0.00000000
