10
Lattice="16.28999089631971 0.0 0.0 0.0 16.28999089631971 0.0 0.0 0.0 34.33025523377368" Properties=species:S:1:pos:R:3:initial_magmoms:R:1 pbc="T T T"
Si       1.35755973       1.35656604       1.35693843       0.00000000
Si      -1.36026387       1.35244467      -1.35872360       0.00000000
Si      -1.35856971      -1.35672894       1.35686977       0.00000000
Si       1.35736425      -1.35721764      -1.36363283       0.00000000
Si      -2.70273906       0.01928736      -2.72496210       0.00000000
Si      -0.00001629       2.71409319       2.71397984       0.00000000
Si       2.71495656      -0.00078192       2.71428882       0.00000000
Si      -2.71520091      -0.00065160       2.71422016       0.00000000
Si       0.00004887      -2.71593396       2.71446047       0.00000000
Si       2.71580364       2.71549413      -0.00161352       0.00000000
