10
Lattice="16.28999089631971 0.0 0.0 0.0 16.28999089631971 0.0 0.0 0.0 34.33025523377368" Properties=species:S:1:pos:R:3:initial_magmoms:R:1 pbc="T T T"
Si       1.35508365      -1.35399222      -1.35580553       0.00000000
Si       1.34858394       1.35614250       1.36191632       0.00000000
Si      -1.35878148       1.35731538      -1.35480995       0.00000000
Si      -1.35832536      -1.34930070       1.36534934       0.00000000
Si      -2.54651796       0.21535380       2.72832990       0.00000000
Si       2.70985779       2.71608057       0.00611079       0.00000000
Si       2.71332756       0.00040725      -2.71270962       0.00000000
Si      -0.00158013      -2.71474479      -2.71253797       0.00000000
Si       2.71246419      -2.71498914       0.00466892       0.00000000
Si      -0.00164529       2.71528236      -2.71301860       0.00000000
