10
Lattice="16.28999089631971 0.0 0.0 0.0 16.28999089631971 0.0 0.0 0.0 34.33025523377368" Properties=species:S:1:pos:R:3:initial_magmoms:R:1 pbc="T T T"
Si      -0.36877302      -1.06272702      -2.06386744       0.00000000
Si       1.84083516       1.52617752      -0.13574191       0.00000000
Si      -2.13082974       1.10470635       0.32497038       0.00000000
Si       0.08690715      -1.43412273       1.95088650       0.00000000
Si      -1.65332097      -2.84509737      -1.01339537       0.00000000
Si       1.01219544       2.88134262       1.61458714       0.00000000
Si      -1.15685064       3.23514513       0.70699767       0.00000000
Si      -0.87335577       0.85131540      -3.48345862       0.00000000
Si       3.69748791       0.04334769      -0.04799372       0.00000000
Si      -2.12055075      -1.63773144       2.64885531       0.00000000
