10
Lattice="16.28999089631971 0.0 0.0 0.0 16.28999089631971 0.0 0.0 0.0 34.33025523377368" Properties=species:S:1:pos:R:3:initial_magmoms:R:1 pbc="T T T"
Si      -0.36688338       2.27874294       0.25658447       0.00000000
Si       2.17124523      -0.57267495      -0.61245210       0.00000000
Si      -1.89009612      -0.61952499      -1.22885217       0.00000000
Si      -0.23602581      -0.58541373       2.36030936       0.00000000
Si      -2.43040284       0.22384089       2.31334554       0.00000000
Si      -3.42969660       0.43005600       0.22836499       0.00000000
Si       1.82825928       2.93707071      -0.20048880       0.00000000
Si      -1.57143114      -2.89540089      -1.11751909       0.00000000
Si       3.30022368       1.19368233       0.40894223       0.00000000
Si       2.41122951      -2.60920188       0.51897076       0.00000000
