10
Lattice="16.28999089631971 0.0 0.0 0.0 16.28999089631971 0.0 0.0 0.0 34.33025523377368" Properties=species:S:1:pos:R:3:initial_magmoms:R:1 pbc="T T T"
Si      -1.35334062       1.35837423      -1.35944454       0.00000000
Si       1.36080144      -1.35925389      -1.35899824       0.00000000
Si       1.35840681       1.36515087       1.36263725       0.00000000
Si      -1.36441782      -1.33851672       1.38409367       0.00000000
Si       0.17306496      -2.50121547       2.72414161       0.00000000
Si      -2.71256193      -0.00032580      -2.71679493       0.00000000
Si      -2.71546155       2.71420722      -0.00329571       0.00000000
Si       0.00221544       2.71451673      -2.71713823       0.00000000
Si       2.71643895       2.71588509      -0.00030897       0.00000000
Si      -2.71700910      -2.71565703       0.00333004       0.00000000
