10
Lattice="16.28999089631971 0.0 0.0 0.0 16.28999089631971 0.0 0.0 0.0 34.33025523377368" Properties=species:S:1:pos:R:3:initial_magmoms:R:1 pbc="T T T"
Si       0.85900428       2.13245874      -0.44097237       0.00000000
Si       0.82863972      -1.35516510      -1.75032904       0.00000000
Si      -0.68002605      -1.01550231       2.03678085       0.00000000
Si      -2.16904608       0.35380251      -0.90758946       0.00000000
Si      -1.01219544      -2.88134262      -1.61458714       0.00000000
Si       0.18696033       2.28457476      -2.69224878       0.00000000
Si      -3.28339611       1.32499602       0.93419543       0.00000000
Si       1.13710716       0.30980322      -3.54051553       0.00000000
Si       0.48441573       0.04118112       3.75741420       0.00000000
Si      -3.14302518      -1.77663627      -1.28961676       0.00000000
