10
Lattice="16.28999089631971 0.0 0.0 0.0 16.28999089631971 0.0 0.0 0.0 34.33025523377368" Properties=species:S:1:pos:R:3:initial_magmoms:R:1 pbc="T T T"
Si       0.60372369       2.04550272      -0.93330284       0.00000000
Si       1.36790388      -1.51839090      -1.17931359       0.00000000
Si       0.60033537      -0.37418130       2.31605763       0.00000000
Si      -2.32805277      -0.16555527       0.71849831       0.00000000
Si      -1.59480729      -1.03250907       2.77313091       0.00000000
Si      -0.68250213       3.50722071       0.38374381       0.00000000
Si       2.81626407       2.50677036      -0.37001170       0.00000000
Si       1.39921326       1.61098326       3.15745833       0.00000000
Si      -3.49249455      -1.22223870      -1.00213504       0.00000000
Si       1.23738840      -3.71975634      -0.40386135       0.00000000
