10
Lattice="16.28999089631971 0.0 0.0 0.0 16.28999089631971 0.0 0.0 0.0 34.33025523377368" Properties=species:S:1:pos:R:3:initial_magmoms:R:1 pbc="T T T"
Si       1.14215380      -1.49058387       1.43052880       0.00000000
Si      -1.56259807       1.21896441       1.41475747       0.00000000
Si       1.34902051       1.51935201      -1.35154312       0.00000000
Si      -0.11651097      -1.53717327      -1.92914999       0.00000000
Si       2.50570825      -0.13554909       2.78908075       0.00000000
Si      -0.21797649       2.58735699       2.78811950       0.00000000
Si      -2.84691600       2.55520053      -0.04593391       0.00000000
Si       2.64888106       2.78249490       0.06098773       0.00000000
Si       0.38691682      -0.19766286      -3.86163546       0.00000000
Si       1.90376017      -3.45062925       0.28874507       0.00000000
