10
Lattice="16.28999089631971 0.0 0.0 0.0 16.28999089631971 0.0 0.0 0.0 34.33025523377368" Properties=species:S:1:pos:R:3:initial_magmoms:R:1 pbc="T T T"
Si       0.99717606       1.71310527       1.12278639       0.00000000
Si      -1.71471798      -0.97963173       1.14323693       0.00000000
Si      -0.86784975       1.33885881      -1.67353947       0.00000000
Si       1.76243139      -1.60265907      -0.33215265       0.00000000
Si       1.33429761       1.49648085      -2.60035388       0.00000000
Si       2.28727890       0.27403038       2.42182681       0.00000000
Si      -0.44758404      -2.43499662       2.43152854       0.00000000
Si       2.51522487       2.44824039      -0.51070441       0.00000000
Si       1.74109149      -1.06899867      -2.92999318       0.00000000
Si      -2.95129188      -2.22226551      -0.39549201       0.00000000
