10
Lattice="16.28999089631971 0.0 0.0 0.0 16.28999089631971 0.0 0.0 0.0 34.33025523377368" Properties=species:S:1:pos:R:3:initial_magmoms:R:1 pbc="T T T"
Si      -1.35537687      -1.35637056      -1.35752204       0.00000000
Si       1.35765747      -1.35746199       1.35645780       0.00000000
Si      -1.35764118       1.35745289       1.35700709       0.00000000
Si       1.35716877       1.35750578      -1.35796833       0.00000000
Si       0.00089595      -2.71316466       2.71346489       0.00000000
Si      -2.71389771      -0.00001629       2.71343056       0.00000000
Si      -0.00014661       2.71671492      -2.71185137       0.00000000
Si      -0.00065160      -2.71570590      -2.71332757       0.00000000
Si      -0.00001629       2.71544919       2.71404850       0.00000000
Si       2.71454931       2.71501099      -0.00058361       0.00000000
