10
Lattice="16.28999089631971 0.0 0.0 0.0 16.28999089631971 0.0 0.0 0.0 34.33025523377368" Properties=species:S:1:pos:R:3:initial_magmoms:R:1 pbc="T T T"
Si      -1.51804881      -0.73513512       1.63349080       0.00000000
Si       2.01062583      -1.39369095       0.26647884       0.00000000
Si       0.89305038       1.76503846       1.49337178       0.00000000
Si      -1.18092726      -0.95175954      -2.08964947       0.00000000
Si      -2.51522487      -2.44824039       0.51070441       0.00000000
Si      -0.22794597      -2.17421001       2.93253122       0.00000000
Si      -3.38307462      -1.10938158      -1.16283506       0.00000000
Si       2.45596185       0.56878785       2.92823993       0.00000000
Si       1.23020451      -3.45286098       1.35862889       0.00000000
Si       3.37040100      -1.16279649      -1.67349789       0.00000000
