10
Lattice="16.28999089631971 0.0 0.0 0.0 16.28999089631971 0.0 0.0 0.0 34.33025523377368" Properties=species:S:1:pos:R:3:initial_magmoms:R:1 pbc="T T T"
Si      -1.34560287      -1.35730398       1.39243593       0.00000000
Si       1.36106112       1.36901160       1.39658989       0.00000000
Si       1.73792213      -1.09291728      -1.30524390       0.00000000
Si      -1.64576241       1.22666958      -1.48260440       0.00000000
Si       3.49074242       0.74991015      -1.10786542       0.00000000
Si      -2.70751203      -2.69739692       0.02796887       0.00000000
Si       2.72913605       2.70995553       0.03391831       0.00000000
Si      -2.70394452       2.74108572       0.01761830       0.00000000
Si      -2.69996976       0.00149868       2.75284171       0.00000000
Si       0.01216484      -2.71267128       2.75263573       0.00000000
