10
Lattice="16.28999089631971 0.0 0.0 0.0 16.28999089631971 0.0 0.0 0.0 34.33025523377368" Properties=species:S:1:pos:R:3:initial_magmoms:R:1 pbc="T T T"
Si      -1.35682668       1.35697492       1.35769369       0.00000000
Si      -1.35738054      -1.35750521      -1.35738472       0.00000000
Si       1.35770634      -1.35778061       1.35765936       0.00000000
Si       1.35974259       1.35770797      -1.35728173       0.00000000
Si      -2.71469592       0.00170393      -2.71126775       0.00000000
Si      -2.71456560       0.00043820       2.71463212       0.00000000
Si      -2.71454931      -2.71501099       0.00058361       0.00000000
Si       0.00063531      -2.71457116       2.71521573       0.00000000
Si       2.71572219      -2.71543453       0.00000000       0.00000000
Si       2.71679733       0.00033720       2.71449480       0.00000000
