10
Lattice="16.28999089631971 0.0 0.0 0.0 16.28999089631971 0.0 0.0 0.0 34.33025523377368" Properties=species:S:1:pos:R:3:initial_magmoms:R:1 pbc="T T T"
Si       1.35172791      -1.35537754       1.36006248       0.00000000
Si       1.35593236       1.35732190      -1.35621749       0.00000000
Si      -1.35909099      -1.35811781      -1.35683544       0.00000000
Si      -1.35957969       1.35639337       1.36040578       0.00000000
Si       2.71301383      -0.00047567      -2.71452913       0.00000000
Si       2.71346018      -2.71515271       0.00130455       0.00000000
Si      -0.00123804       2.71603822      -2.71349922       0.00000000
Si       0.01114236       2.69517073       2.73423471       0.00000000
Si       2.71514945       2.71504453       0.00037763       0.00000000
Si      -0.00107514      -2.71577173      -2.71449480       0.00000000
