10
Lattice="16.28999089631971 0.0 0.0 0.0 16.28999089631971 0.0 0.0 0.0 34.33025523377368" Properties=species:S:1:pos:R:3:initial_magmoms:R:1 pbc="T T T"
Si       1.35314514       1.33638273      -1.38986116       0.00000000
Si      -1.35995436      -1.37767788      -1.39507936       0.00000000
Si       1.54637712      -1.20417309       1.41378936       0.00000000
Si      -1.34211681       1.51247763       1.57146831       0.00000000
Si       0.22812516      -2.58092407       2.80492074       0.00000000
Si      -2.71686738       2.69237862      -0.01510532       0.00000000
Si       2.70573642       2.71352304      -0.00909752       0.00000000
Si      -2.70962158      -2.71664258      -0.02076982       0.00000000
Si       0.00231318       2.69526195      -2.75390595       0.00000000
Si       2.72662020      -2.73669557      -0.01362912       0.00000000
