10
Lattice="16.28999089631971 0.0 0.0 0.0 16.28999089631971 0.0 0.0 0.0 34.33025523377368" Properties=species:S:1:pos:R:3:initial_magmoms:R:1 pbc="T T T"
Si      -1.67570343       1.44809955       0.83068965       0.00000000
Si       0.51305355      -1.88127346       1.36771813       0.00000000
Si       1.99073574       1.24198218      -0.42833883       0.00000000
Si      -0.92250270      -0.85406189      -2.08899720       0.00000000
Si       0.73373418      -3.68245943      -0.20251429       0.00000000
Si      -1.35413883       3.55666086      -0.24669735       0.00000000
Si       0.13976820      -2.98119122      -2.38629737       0.00000000
Si      -3.67404660       0.21859551       1.10897085       0.00000000
Si       2.15966304       3.03857370       1.04384632       0.00000000
Si       1.91966247       2.42913222      -2.41180477       0.00000000
