10
Lattice="16.28999089631971 0.0 0.0 0.0 16.28999089631971 0.0 0.0 0.0 34.33025523377368" Properties=species:S:1:pos:R:3:initial_magmoms:R:1 pbc="T T T"
Si      -1.37072205      -1.33877736      -1.37382892       0.00000000
Si      -1.36471104       1.38934152       1.33884637       0.00000000
Si       1.34711206       1.37720547      -1.37437821       0.00000000
Si       1.36982351      -1.33372746       1.55876611       0.00000000
Si       2.70744591      -2.67590129      -0.00188817       0.00000000
Si      -2.73140946      -2.68920370       0.00017165       0.00000000
Si      -0.01114236      -2.69517073      -2.73423471       0.00000000
Si       2.70020012       2.73311991       0.00377633       0.00000000
Si       2.70400709       0.01987380      -2.73385707       0.00000000
Si      -2.72810259       0.02221956      -2.73430337       0.00000000
