10
Lattice="16.28999089631971 0.0 0.0 0.0 16.28999089631971 0.0 0.0 0.0 34.33025523377368" Properties=species:S:1:pos:R:3:initial_magmoms:R:1 pbc="T T T"
Si      -2.17124523       0.57267495       0.61245210       0.00000000
Si       1.12897845       1.76635728       1.02139432       0.00000000
Si       0.29406708       0.16417062      -2.30795569       0.00000000
Si       0.23998428      -2.03652693       1.13142285       0.00000000
Si      -0.34298595       3.50974566       0.41196329       0.00000000
Si       0.06763608      -3.53835904      -0.68794437       0.00000000
Si      -1.56558303      -0.76636305      -3.21630042       0.00000000
Si       3.10875102       2.07392877      -0.22561856       0.00000000
Si      -2.40727104      -0.01273878       2.97276145       0.00000000
Si       2.34753561      -1.89270252       2.36782769       0.00000000
