10
Lattice="16.28999089631971 0.0 0.0 0.0 16.28999089631971 0.0 0.0 0.0 34.33025523377368" Properties=species:S:1:pos:R:3:initial_magmoms:R:1 pbc="T T T"
Si       1.35710361       1.35597960       1.35851762       0.00000000
Si      -1.36181142       1.35547461      -1.35841463       0.00000000
Si      -1.35824391      -1.35892809       1.35855195       0.00000000
Si       1.35886293      -1.36433637      -1.35566821       0.00000000
Si      -0.00316026      -2.69110800      -2.73412485       0.00000000
Si       2.71451120      -2.71492398       0.00470325       0.00000000
Si      -0.00092853       2.71412577       2.71593667       0.00000000
Si       2.71509993       2.71531494       0.00130455       0.00000000
Si       2.71438583      -0.00110772       2.71617698       0.00000000
Si      -2.71580364      -2.71549413       0.00161352       0.00000000
