10
Lattice="16.28999089631971 0.0 0.0 0.0 16.28999089631971 0.0 0.0 0.0 34.33025523377368" Properties=species:S:1:pos:R:3:initial_magmoms:R:1 pbc="T T T"
Si       1.35767376       1.35755973      -1.35748771       0.00000000
Si       1.35428544      -1.35716877       1.36129837       0.00000000
Si      -1.35721764      -1.35796698      -1.35783101       0.00000000
Si      -1.35871632       1.35920502       1.35906690       0.00000000
Si       2.71472850      -2.71409319      -0.00024031       0.00000000
Si      -2.71474479      -0.00009774      -2.71459779       0.00000000
Si       2.71497285       2.71456560      -0.00127022       0.00000000
Si       0.00008145       2.71521720      -2.71456346       0.00000000
Si      -2.71435383      -2.71593396       0.00037763       0.00000000
Si       0.00035838      -2.71549413      -2.71487243       0.00000000
