10
Lattice="16.28999089631971 0.0 0.0 0.0 16.28999089631971 0.0 0.0 0.0 34.33025523377368" Properties=species:S:1:pos:R:3:initial_magmoms:R:1 pbc="T T T"
Si       2.14132524       0.70235964       0.60314859       0.00000000
Si      -1.78349436       0.73691073       1.45388712       0.00000000
Si       0.60711201      -2.33176689      -0.24154781       0.00000000
Si      -0.47045520       0.92978433      -2.19463145       0.00000000
Si      -1.62953757      -1.07139330      -2.93269802       0.00000000
Si       1.99128960       3.07046952       0.40516590       0.00000000
Si       3.53147556      -0.40329153      -1.07450326       0.00000000
Si      -0.10697643      -2.82802545      -2.48928820       0.00000000
Si      -2.03089059       3.14616915       1.07621977       0.00000000
Si       2.66957818       0.38775087       2.90636670       0.00000000
