10
Lattice="16.28999089631971 0.0 0.0 0.0 16.28999089631971 0.0 0.0 0.0 34.33025523377368" Properties=species:S:1:pos:R:3:initial_magmoms:R:1 pbc="T T T"
Si      -0.60372369      -2.04550272       0.93330284       0.00000000
Si       2.21254038       0.46126764       0.56329114       0.00000000
Si      -1.28622582       1.46171799       1.31704665       0.00000000
Si      -0.31988673       0.56441592      -2.28152138       0.00000000
Si       1.93070709       2.81232189       0.71142628       0.00000000
Si      -2.55718791      -0.11978037      -2.54658543       0.00000000
Si       0.76418019      -3.56389362      -0.24601075       0.00000000
Si      -0.31825773       3.57868494       0.93052209       0.00000000
Si       2.70873378      -0.27067464       2.72050260       0.00000000
Si      -0.77807556       1.24680402       3.65236357       0.00000000
