10
Lattice="16.28999089631971 0.0 0.0 0.0 16.28999089631971 0.0 0.0 0.0 34.33025523377368" Properties=species:S:1:pos:R:3:initial_magmoms:R:1 pbc="T T T"
Si      -1.18355158       1.02064995       1.83382027       0.00000000
Si       1.29043353       1.47336534      -1.43723694       0.00000000
Si       1.62532335      -1.22647410       1.37866949       0.00000000
Si      -1.41469365      -1.41358104      -1.46882079       0.00000000
Si       0.09096336      -3.02604995       1.44822263       0.00000000
Si       2.86067550      -2.62003636      -0.20378451       0.00000000
Si      -1.83956684      -3.43064794      -0.21686434       0.00000000
Si       2.18206668       3.33819567      -0.07130398       0.00000000
Si       2.63255034      -0.03911229      -3.00870525       0.00000000
Si      -2.44431680      -0.64053909       3.10836604       0.00000000
