10
Lattice="16.28999089631971 0.0 0.0 0.0 16.28999089631971 0.0 0.0 0.0 34.33025523377368" Properties=species:S:1:pos:R:3:initial_magmoms:R:1 pbc="T T T"
Si      -1.98299799      -0.59803848      -1.18007713       0.00000000
Si       1.24540308      -1.43335710       1.54264805       0.00000000
Si       0.78042132       2.05917003      -1.09215005       0.00000000
Si      -1.45815048       1.27865097       1.57390233       0.00000000
Si      -2.65952169      -2.49096906       0.12504459       0.00000000
Si       2.58799230       2.72126079       0.20422737       0.00000000
Si      -2.74825332       2.71772586       0.27486191       0.00000000
Si       2.67333561      -2.81520522       0.09909777       0.00000000
Si      -1.23020451       3.45286098      -1.35862889       0.00000000
Si       2.58866019      -0.06740802       2.93479904       0.00000000
