10
Lattice="16.28999089631971 0.0 0.0 0.0 16.28999089631971 0.0 0.0 0.0 34.33025523377368" Properties=species:S:1:pos:R:3:initial_magmoms:R:1 pbc="T T T"
Si      -1.35729909      -1.35700587      -1.35621749       0.00000000
Si       1.35709699       1.35812988      -1.35625182       0.00000000
Si       1.35577301      -1.35987291       1.35834597       0.00000000
Si      -1.35584928       1.35959598       1.36019980       0.00000000
Si       0.01011609      -2.68727985       2.72922249       0.00000000
Si      -2.71489140       0.00065160      -2.71329324       0.00000000
Si       2.71470311       0.00037467      -2.71391118       0.00000000
Si       0.00073305      -2.71515204      -2.71363654       0.00000000
Si       0.00042354       2.71502172      -2.71377386       0.00000000
Si       2.71594929      -2.71313208       0.00068661       0.00000000
