10
Lattice="16.28999089631971 0.0 0.0 0.0 16.28999089631971 0.0 0.0 0.0 34.33025523377368" Properties=species:S:1:pos:R:3:initial_magmoms:R:1 pbc="T T T"
Si      -0.82347579      -0.25694217      -2.21649984       0.00000000
Si      -2.18567817      -0.39366414       0.90003680       0.00000000
Si       1.44920727      -1.86186555       0.42504313       0.00000000
Si       1.21906215       2.04274971       0.44728915       0.00000000
Si       1.81302813       1.34148150       2.63107223       0.00000000
Si       1.05793776       0.37571256      -3.51754858       0.00000000
Si      -0.11122812       0.35451927       3.69589435       0.00000000
Si       3.35534904      -1.44769230      -1.04645542       0.00000000
Si       0.29012490      -3.86304318      -0.31302344       0.00000000
Si      -2.38739724       0.61776567       3.02332995       0.00000000
