10
Lattice="16.28999089631971 0.0 0.0 0.0 16.28999089631971 0.0 0.0 0.0 34.33025523377368" Properties=species:S:1:pos:R:3:initial_magmoms:R:1 pbc="T T T"
Si      -1.03250907       0.15801300      -2.07142010       0.00000000
Si       1.54106073      -1.75738149       0.15819390       0.00000000
Si       1.40632452       1.88777384      -0.08750787       0.00000000
Si      -1.75304835      -0.36427698       1.59786829       0.00000000
Si      -2.84719878       1.36029549      -1.25034292       0.00000000
Si       2.49665657       1.32447867      -2.02047397       0.00000000
Si       3.08515400      -0.99064377      -1.51870268       0.00000000
Si      -1.91417274      -2.03131413      -2.36696943       0.00000000
Si      -0.03862359       3.70998953      -0.36033056       0.00000000
Si      -2.81531925       1.76285234       1.89516847       0.00000000
