10
Lattice="16.28999089631971 0.0 0.0 0.0 16.28999089631971 0.0 0.0 0.0 34.33025523377368" Properties=species:S:1:pos:R:3:initial_magmoms:R:1 pbc="T T T"
Si      -0.88930368       2.25737046       0.13855699       0.00000000
Si      -2.10044726      -0.92981691       0.80339708       0.00000000
Si       1.83710475       0.15711705       1.62924616       0.00000000
Si      -0.00197109      -0.35264592      -2.50205906       0.00000000
Si      -1.77222168       1.32665760      -2.56024888       0.00000000
Si       0.85566483      -0.61300899       3.59911731       0.00000000
Si       2.59550199       2.36972259       1.69540060       0.00000000
Si       0.64278711       3.70965654       1.44928686       0.00000000
Si      -3.96419498       0.51355854       0.78104807       0.00000000
Si      -2.86873905       2.48301954       1.48536798       0.00000000
