10
Lattice="16.28999089631971 0.0 0.0 0.0 16.28999089631971 0.0 0.0 0.0 34.33025523377368" Properties=species:S:1:pos:R:3:initial_magmoms:R:1 pbc="T T T"
Si       2.26390275       0.85037058      -0.41608293       0.00000000
Si      -1.54806802       1.90330731      -0.15053825       0.00000000
Si      -0.66186270      -2.36662749       0.65759641       0.00000000
Si       0.09780516      -1.23815403      -2.24688213       0.00000000
Si       0.51702831       0.42933924       2.63302906       0.00000000
Si       3.25681083      -1.23132852      -0.14597233       0.00000000
Si       2.20563342      -2.37605940      -1.91827274       0.00000000
Si      -3.70243097      -0.69546897       0.72062679       0.00000000
Si      -2.26181111       1.88364528      -2.54431963       0.00000000
Si      -2.54146480      -2.22984036       2.07828615       0.00000000
