10
Lattice="16.28999089631971 0.0 0.0 0.0 16.28999089631971 0.0 0.0 0.0 34.33025523377368" Properties=species:S:1:pos:R:3:initial_magmoms:R:1 pbc="T T T"
Si       0.99140940       1.72467117      -1.35353973       0.00000000
Si       1.77025059      -1.67930352       0.05818982       0.00000000
Si      -1.75429942      -0.87589701      -1.49837916       0.00000000
Si       0.88291800       0.93071286       2.69880586       0.00000000
Si       1.77222168      -1.32665760       2.56024888       0.00000000
Si       2.22431805       0.36051399      -2.89599896       0.00000000
Si      -0.49613313      -2.36423286      -2.89431678       0.00000000
Si       0.87861744      -3.54413385      -1.30774314       0.00000000
Si       3.60191448      -0.82391562      -1.33836575       0.00000000
Si       2.92144860       2.66769927      -0.11411383       0.00000000
