10
Lattice="16.28999089631971 0.0 0.0 0.0 16.28999089631971 0.0 0.0 0.0 34.33025523377368" Properties=species:S:1:pos:R:3:initial_magmoms:R:1 pbc="T T T"
Si       1.33484333       1.85464908      -0.46057496       0.00000000
Si      -0.75803560      -0.16363305      -2.24832400       0.00000000
Si       1.38123724      -1.74972519       0.94621102       0.00000000
Si      -1.39015032       1.10565117       1.67765185       0.00000000
Si       2.41434904       1.82871540       1.57661785       0.00000000
Si      -0.77265262      -3.08055303       1.34021958       0.00000000
Si       2.36834608      -0.29859570       2.67837935       0.00000000
Si      -2.92436355      -1.92847536       0.83295545       0.00000000
Si      -3.53147556       0.40329153       1.07450326       0.00000000
Si       2.75349056       1.06300395      -2.28440512       0.00000000
