10
Lattice="16.28999089631971 0.0 0.0 0.0 16.28999089631971 0.0 0.0 0.0 34.33025523377368" Properties=species:S:1:pos:R:3:initial_magmoms:R:1 pbc="T T T"
Si      -1.38123724       1.74972519      -0.94621102       0.00000000
Si       1.58513103      -1.50993639      -1.08078570       0.00000000
Si       0.98710884       1.45112949       1.73216833       0.00000000
Si      -2.15388986      -1.33082784       0.39400856       0.00000000
Si      -1.44014677      -1.31116581       2.78778993       0.00000000
Si      -0.62944560       0.86095908       3.37020304       0.00000000
Si      -1.75986246      -2.66673816      -1.71084923       0.00000000
Si       1.03311180       3.57844059       0.63040683       0.00000000
Si       3.35445309      -1.70336385       0.46847092       0.00000000
Si       0.42999084      -3.56114061      -1.44963017       0.00000000
