10
Lattice="16.28999089631971 0.0 0.0 0.0 16.28999089631971 0.0 0.0 0.0 34.279985188174585" Properties=species:S:1:pos:R:3:initial_magmoms:R:1 pbc="T T T"
Si      -0.19790721      -2.07479214      -1.01266561       0.00000000
Si      -2.08446840       0.97934081      -0.34581668       0.00000000
Si       0.41589999      -0.43494300       2.26148617       0.00000000
Si       1.70230500       1.68975748      -0.55636447       0.00000000
Si       3.19142277      -0.18911061       0.44817678       0.00000000
Si      -1.59621963       2.70745406       1.23075500       0.00000000
Si       0.53351379       3.45610988       0.58831343       0.00000000
Si      -0.70424928       1.54949081       3.11382419       0.00000000
Si      -1.08188406      -1.60119297      -3.12273700       0.00000000
Si       2.38438359      -2.12317344       1.88073816       0.00000000
