10
Lattice="16.28999089631971 0.0 0.0 0.0 16.28999089631971 0.0 0.0 0.0 34.279985188174585" Properties=species:S:1:pos:R:3:initial_magmoms:R:1 pbc="T T T"
Si       0.78719796      -1.78017120      -1.28347764       0.00000000
Si       0.88397685      -0.47359917       2.11007139       0.00000000
Si       0.69419835       2.13815277      -0.68926805       0.00000000
Si      -2.35901096       0.10884978      -0.26447023       0.00000000
Si      -1.05496646       3.30585417       0.46713362       0.00000000
Si       0.89559162       1.51915653      -3.02757570       0.00000000
Si       1.08188406       1.60119297       3.12273700       0.00000000
Si       1.29130830      -0.81819783      -3.36633071       0.00000000
Si       2.98646199      -1.44085050       1.74670334       0.00000000
Si      -0.97776001      -3.30976962      -1.48583251       0.00000000
