10
Lattice="16.28999089631971 0.0 0.0 0.0 16.28999089631971 0.0 0.0 0.0 34.279985188174585" Properties=species:S:1:pos:R:3:initial_magmoms:R:1 pbc="T T T"
Si       1.35436689      -1.35782037       1.35834517       0.00000000
Si      -1.35778779       1.35521397       1.35834517       0.00000000
Si      -1.37148768      -1.35413883      -1.35571247       0.00000000
Si       1.35697329       1.35262386      -1.37548860       0.00000000
Si       2.71420722       2.71153566      -0.00003428       0.00000000
Si      -2.71292031       2.71355562      -0.00514200       0.00000000
Si       2.71293660      -2.71376413      -0.00387364       0.00000000
Si       2.71365336      -0.00079821       2.71494206       0.00000000
Si      -0.00122175       2.71440270       2.71490778       0.00000000
Si      -2.71577106      -2.71470406       0.00305092       0.00000000
