10
Lattice="16.28999089631971 0.0 0.0 0.0 16.28999089631971 0.0 0.0 0.0 34.279985188174585" Properties=species:S:1:pos:R:3:initial_magmoms:R:1 pbc="T T T"
Si       1.33999911       1.37019341       1.38375694       0.00000000
Si      -1.37339361      -1.34959544       1.38505958       0.00000000
Si      -1.44430398       1.33159588      -1.33332420       0.00000000
Si       1.41195204      -1.39009238      -1.54695718       0.00000000
Si       2.68509699      -2.70332702       0.01469584       0.00000000
Si       2.70650205       2.71002636      -0.01013317       0.00000000
Si      -2.72189610      -2.70699227       0.01416450       0.00000000
Si       2.69811270       0.01048217       2.74433031       0.00000000
Si      -0.01728369      -2.70555875       2.74570151       0.00000000
Si      -0.01857060       2.72613717       2.74597575       0.00000000
