10
Lattice="16.28999089631971 0.0 0.0 0.0 16.28999089631971 0.0 0.0 0.0 34.279985188174585" Properties=species:S:1:pos:R:3:initial_magmoms:R:1 pbc="T T T"
Si      -1.33719723      -1.37295344       1.35837945       0.00000000
Si      -1.35562122       1.35378960      -1.35971637       0.00000000
Si       1.34864910       1.36353754       1.36352145       0.00000000
Si       1.36075257      -1.36018208      -1.35971637       0.00000000
Si       2.60095914      -0.13747097       2.70527510       0.00000000
Si      -2.67188580      -0.06074507       2.74250319       0.00000000
Si      -2.71261080       2.71256946      -0.00027424       0.00000000
Si       0.00245979       2.71209705      -2.71720454       0.00000000
Si       2.72002275       2.70957210      -0.00041136       0.00000000
Si      -2.71244790      -0.00281830      -2.71768446       0.00000000
