10
Lattice="16.28999089631971 0.0 0.0 0.0 16.28999089631971 0.0 0.0 0.0 34.279985188174585" Properties=species:S:1:pos:R:3:initial_magmoms:R:1 pbc="T T T"
Si       0.49555809       1.41893882       1.86476368       0.00000000
Si       0.17718633      -2.06377263       1.24672948       0.00000000
Si       2.22079941       0.19734195      -0.96847868       0.00000000
Si       0.80285265      -1.04157513      -2.48554028       0.00000000
Si       0.05657517      -2.84825016      -1.05400729       0.00000000
Si      -2.82633129       0.16579962      -1.12027054       0.00000000
Si      -1.68637338       1.20107636       2.60312069       0.00000000
Si      -1.76472828       1.85497325      -2.36885114       0.00000000
Si      -0.41557419       3.30536969      -1.08736174       0.00000000
Si      -3.48659757       0.48163666       1.05671541       0.00000000
