10
Lattice="16.28999089631971 0.0 0.0 0.0 16.28999089631971 0.0 0.0 0.0 34.279985188174585" Properties=species:S:1:pos:R:3:initial_magmoms:R:1 pbc="T T T"
Si       0.80617581       2.13061797      -0.33608116       0.00000000
Si       1.24413246      -1.17491625      -1.62891725       0.00000000
Si       0.96604587      -0.81093249       2.01785818       0.00000000
Si      -2.31713847      -0.05574438      -0.68011529       0.00000000
Si       0.60603687      -3.22443788      -0.68128081       0.00000000
Si      -1.59088140       0.19028349      -3.10148339       0.00000000
Si       0.49037787      -3.10855391       1.76538594       0.00000000
Si       1.66814487       2.15805033      -2.45849335       0.00000000
Si      -0.55609173      -1.89435596      -3.17532252       0.00000000
Si       2.80844487       2.45648313       0.85939971       0.00000000
