10
Lattice="16.28999089631971 0.0 0.0 0.0 16.28999089631971 0.0 0.0 0.0 34.279985188174585" Properties=species:S:1:pos:R:3:initial_magmoms:R:1 pbc="T T T"
Si       1.54740339      -1.70981536      -0.12018570       0.00000000
Si       0.45813996       1.34790628       1.85653648       0.00000000
Si       0.21743892       1.65699274      -1.65726681       0.00000000
Si      -2.00044458      -1.22405503      -0.32967080       0.00000000
Si      -1.74109149       1.90232014       2.36316066       0.00000000
Si       2.05164405      -1.54642666      -2.40673055       0.00000000
Si      -1.75984128      -2.91237574       1.29948640       0.00000000
Si      -1.53743391       3.15731803      -1.21889411       0.00000000
Si       0.43712586      -3.65267479       0.74706413       0.00000000
Si       2.15484120       2.89977313      -1.06048621       0.00000000
