10
Lattice="16.28999089631971 0.0 0.0 0.0 16.28999089631971 0.0 0.0 0.0 34.279985188174585" Properties=species:S:1:pos:R:3:initial_magmoms:R:1 pbc="T T T"
Si       1.35700587       1.34545626      -1.36266445       0.00000000
Si       1.42405551      -1.28782224       1.35851657       0.00000000
Si      -1.35557235      -1.37225331      -1.36098473       0.00000000
Si      -1.35773892       1.34902377       1.42501978       0.00000000
Si       0.02459790      -2.58926292       2.74178331       0.00000000
Si      -2.71189404       2.69276958       0.00195396       0.00000000
Si       2.71539639       2.70536175       0.00918704       0.00000000
Si       0.00171045       2.70057249      -2.72172951       0.00000000
Si      -2.71305063      -0.01412343      -2.72107818       0.00000000
Si       2.71604799      -0.01500309      -2.72097534       0.00000000
