10
Lattice="16.28999089631971 0.0 0.0 0.0 16.28999089631971 0.0 0.0 0.0 34.279985188174585" Properties=species:S:1:pos:R:3:initial_magmoms:R:1 pbc="T T T"
Si       0.86196906       0.02743236      -2.12241219       0.00000000
Si      -0.80617581      -2.13061797       0.33608116       0.00000000
Si       2.00226906       0.32586516       1.19548087       0.00000000
Si      -1.45055934       1.66247595       0.91133392       0.00000000
Si       2.34820350       2.31647058      -0.01522032       0.00000000
Si       1.35778779       2.24974674      -2.12035539       0.00000000
Si       0.43795665      -3.30553422      -1.29283608       0.00000000
Si      -0.84289347       1.52251227       3.18797184       0.00000000
Si       0.15987006      -2.94155046       2.35393934       0.00000000
Si       1.45533231       0.94371228       3.40568415       0.00000000
