10
Lattice="16.28999089631971 0.0 0.0 0.0 16.28999089631971 0.0 0.0 0.0 34.279985188174585" Properties=species:S:1:pos:R:3:initial_magmoms:R:1 pbc="T T T"
Si      -0.49581873      -2.22231438      -0.00205680       0.00000000
Si       0.99041571       0.06672384       2.10513507       0.00000000
Si      -1.95522354       1.36021500       0.08429453       0.00000000
Si       1.86960330       0.71560341      -1.36125897       0.00000000
Si      -0.45025560       3.04702821      -0.64370992       0.00000000
Si       3.09628917       0.02564046       1.10419322       0.00000000
Si      -1.35778779      -2.24974674       2.12035539       0.00000000
Si       0.32909058       2.02312026      -2.75261579       0.00000000
Si       1.45440378      -3.22273215      -0.77225994       0.00000000
Si      -2.43230877      -0.92300769      -2.78641587       0.00000000
