10
Lattice="16.28999089631971 0.0 0.0 0.0 16.28999089631971 0.0 0.0 0.0 34.279985188174585" Properties=species:S:1:pos:R:3:initial_magmoms:R:1 pbc="T T T"
Si       1.63841562       1.69277535       0.39288313       0.00000000
Si      -0.30933081       0.22190238      -2.36850834       0.00000000
Si      -1.93346010      -0.05475069       1.46300203       0.00000000
Si       1.08458820      -2.17500822       0.15412290       0.00000000
Si      -0.82231920      -2.34300699       1.56512216       0.00000000
Si       3.44108331       0.28960362      -0.36011145       0.00000000
Si       1.05513588      -1.48983453      -3.16822656       0.00000000
Si      -3.65847336      -0.17495460      -0.18055278       0.00000000
Si       3.19989357      -1.60510257       1.02092709       0.00000000
Si       0.61349769       2.27281338      -3.02877550       0.00000000
