10
Lattice="16.28999089631971 0.0 0.0 0.0 16.28999089631971 0.0 0.0 0.0 34.279985188174585" Properties=species:S:1:pos:R:3:initial_magmoms:R:1 pbc="T T T"
Si      -1.35700587      -1.34545626       1.36266445       0.00000000
Si      -1.35529542       1.35511623      -1.35906505       0.00000000
Si       1.35904212      -1.36045935      -1.35831089       0.00000000
Si       1.35839052       1.35990549       1.37185149       0.00000000
Si       0.06704964      -2.63327850       2.72118102       0.00000000
Si      -2.71099809       2.71660185      -0.00023996       0.00000000
Si      -2.71217097      -0.00203625      -2.71610758       0.00000000
Si       0.00275301       2.71311579      -2.71638182       0.00000000
Si      -2.71257822      -2.71770957       0.00167972       0.00000000
Si       2.71875213       2.71238274       0.00157688       0.00000000
