10
Lattice="16.28999089631971 0.0 0.0 0.0 16.28999089631971 0.0 0.0 0.0 34.279985188174585" Properties=species:S:1:pos:R:3:initial_magmoms:R:1 pbc="T T T"
Si       1.34332227       1.35451350       1.36602389       0.00000000
Si      -1.35894438       1.35337320      -1.35916789       0.00000000
Si       1.35570267      -1.36148562      -1.35882509       0.00000000
Si      -1.35790182      -1.36928853       1.36485837       0.00000000
Si      -2.71438641       2.70881523       0.00164544       0.00000000
Si       2.71410948       2.71218726       0.00150832       0.00000000
Si      -0.00131949       2.71138905      -2.71569622       0.00000000
Si       2.71099809      -2.71660185       0.00023996       0.00000000
Si       2.71375110      -0.00348606      -2.71614186       0.00000000
Si      -2.71617831      -0.00368154      -2.71559338       0.00000000
