10
Lattice="16.28999089631971 0.0 0.0 0.0 16.28999089631971 0.0 0.0 0.0 34.279985188174585" Properties=species:S:1:pos:R:3:initial_magmoms:R:1 pbc="T T T"
Si      -1.35415512       1.34374581      -1.42306582       0.00000000
Si       1.35773892      -1.34902377      -1.42501978       0.00000000
Si      -1.40094000      -1.41030675       1.39331078       0.00000000
Si       1.36045935       1.53582120       1.42711086       0.00000000
Si      -2.79399564       2.60299539      -0.01676292       0.00000000
Si       2.78179443      -2.63684601      -0.06650321       0.00000000
Si      -2.71238274      -0.00563634      -2.78631303       0.00000000
Si       0.00374670       2.71303434      -2.78792419       0.00000000
Si       2.71474479      -0.00356751      -2.78768423       0.00000000
Si       2.72787453       2.77623954      -0.02608708       0.00000000
