10
Lattice="16.28999089631971 0.0 0.0 0.0 16.28999089631971 0.0 0.0 0.0 34.279985188174585" Properties=species:S:1:pos:R:3:initial_magmoms:R:1 pbc="T T T"
Si      -1.89600939      -0.79970868       1.05191621       0.00000000
Si       2.09363967       0.02145393       1.02901717       0.00000000
Si       0.24242778      -1.51589853      -1.76031250       0.00000000
Si      -0.38573091       2.28757931      -0.32130648       0.00000000
Si      -3.28246758       0.32890392      -0.63260320       0.00000000
Si       1.56730977       2.61867356      -1.62679189       0.00000000
Si       1.60971264      -3.06638073      -0.67894977       0.00000000
Si       1.58939901      -0.14193477       3.31556202       0.00000000
Si      -1.95844896       0.34382556       3.10607691       0.00000000
Si       0.25943454       3.22487333       1.77848091       0.00000000
