10
Lattice="16.28999089631971 0.0 0.0 0.0 16.28999089631971 0.0 0.0 0.0 34.279985188174585" Properties=species:S:1:pos:R:3:initial_magmoms:R:1 pbc="T T T"
Si       2.08446840      -0.97934081       0.34581668       0.00000000
Si      -1.91020517      -1.23208016       0.67044832       0.00000000
Si       0.48824877       1.72811325       1.57657168       0.00000000
Si      -0.05238212       0.72532039      -2.30978669       0.00000000
Si       0.01316558       3.08340867      -1.91796624       0.00000000
Si       1.88656119      -3.05413295      -0.66684892       0.00000000
Si      -3.48569252       0.53605177       1.02288105       0.00000000
Si       2.61798219       2.47676907       0.93413012       0.00000000
Si       1.38021912       0.57015000       3.45964088       0.00000000
Si      -2.27366765      -2.95921112      -0.93762668       0.00000000
