10
Lattice="16.28999089631971 0.0 0.0 0.0 16.28999089631971 0.0 0.0 0.0 34.279985188174585" Properties=species:S:1:pos:R:3:initial_magmoms:R:1 pbc="T T T"
Si      -1.96639848       0.79970542      -0.96796448       0.00000000
Si      -0.52963677      -2.29075911       0.08604281       0.00000000
Si      -0.05230719       0.93797494       2.17050704       0.00000000
Si       2.00518497       0.16395559      -1.41295322       0.00000000
Si       1.33462341      -1.74032001      -2.66880118       0.00000000
Si       1.29215538      -3.26837088      -0.88147603       0.00000000
Si      -0.50290488       3.17353309       1.75897558       0.00000000
Si       3.67144020       0.20119453       0.45253034       0.00000000
Si      -2.46195657      -0.61923340      -2.83272816       0.00000000
Si      -0.24115716      -0.42189145      -3.80120684       0.00000000
