10
Lattice="16.28999089631971 0.0 0.0 0.0 16.28999089631971 0.0 0.0 0.0 34.279985188174585" Properties=species:S:1:pos:R:3:initial_magmoms:R:1 pbc="T T T"
Si      -0.05774805       2.13809508      -0.96806732       0.00000000
Si      -0.29027151       0.27034884       2.32336157       0.00000000
Si       1.89833886      -1.20246264      -0.73410629       0.00000000
Si      -1.93740228      -1.24278039      -0.59678060       0.00000000
Si       0.40506714       1.65780072      -3.18276128       0.00000000
Si      -3.69227511       0.25754490      -0.15840790       0.00000000
Si      -1.69670124      -1.55186685       2.91702269       0.00000000
Si       1.04373288      -2.62102842      -2.42438475       0.00000000
Si      -2.15484120      -2.89977313       1.06048621       0.00000000
Si       1.72616985       3.39503148      -0.03496560       0.00000000
