10
Lattice="16.28999089631971 0.0 0.0 0.0 16.28999089631971 0.0 0.0 0.0 34.279985188174585" Properties=species:S:1:pos:R:3:initial_magmoms:R:1 pbc="T T T"
Si      -1.51817913       1.76801886       0.35174712       0.00000000
Si       0.29027151      -0.27034884      -2.32336157       0.00000000
Si       1.74648348      -0.22766904       1.57975972       0.00000000
Si      -1.40642973      -1.82221569       0.59366112       0.00000000
Si      -3.50608041       0.65217015      -0.22950463       0.00000000
Si       0.49845771      -0.87430059       3.53598245       0.00000000
Si      -1.64713077      -1.51312923      -2.92014217       0.00000000
Si      -1.12013298       2.43160830       2.57861049       0.00000000
Si      -0.41186007      -2.77301412       2.44875783       0.00000000
Si       0.23252346       1.86774624      -3.29142890       0.00000000
