10
Lattice="16.28999089631971 0.0 0.0 0.0 16.28999089631971 0.0 0.0 0.0 34.279985188174585" Properties=species:S:1:pos:R:3:initial_magmoms:R:1 pbc="T T T"
Si      -2.11530537      -0.56990565      -0.86680419       0.00000000
Si       0.24118974       1.89470619      -1.38103854       0.00000000
Si       1.85978043      -1.41120270      -0.42366657       0.00000000
Si       2.66131359      -1.10205108       1.82246215       0.00000000
Si       1.81745901       0.90559368       2.88654777       0.00000000
Si      -1.56147795       3.29787792      -0.62804396       0.00000000
Si      -3.19989357       1.60510257      -1.02092709       0.00000000
Si       0.94946265      -3.30991623      -1.51089119       0.00000000
Si      -1.03495257      -1.94590566       3.10472084       0.00000000
Si      -0.15685641       1.23111675      -3.60790190       0.00000000
