10
Lattice="16.28999089631971 0.0 0.0 0.0 16.28999089631971 0.0 0.0 0.0 34.279985188174585" Properties=species:S:1:pos:R:3:initial_magmoms:R:1 pbc="T T T"
Si       1.35692442       1.35711990       1.35649405       0.00000000
Si      -1.35531171       1.35817875      -1.35800237       0.00000000
Si      -1.35793440      -1.35798327       1.35611697       0.00000000
Si       1.35713619      -1.36054080      -1.35909933       0.00000000
Si       0.01138671      -2.71138905      -2.70345141       0.00000000
Si      -0.00043983       2.71438641       2.71353658       0.00000000
Si       2.71353933      -2.71467963      -0.00109696       0.00000000
Si       2.71461447      -0.00035838       2.71398222       0.00000000
Si      -2.71539639      -0.00042354       2.71326234       0.00000000
Si      -2.71340901      -2.71539639      -0.00078844       0.00000000
