10
Lattice="16.28999089631971 0.0 0.0 0.0 16.28999089631971 0.0 0.0 0.0 34.279985188174585" Properties=species:S:1:pos:R:3:initial_magmoms:R:1 pbc="T T T"
Si      -1.33545420       1.31349528      -1.45971115       0.00000000
Si      -1.20622563      -1.48465431       1.47698827       0.00000000
Si       1.37632581      -1.40603877      -1.43900602       0.00000000
Si       1.40261787       1.43883054       1.58904960       0.00000000
Si       2.13159537      -0.62718129       2.78322783       0.00000000
Si      -2.50761744       0.18546165       2.77458927       0.00000000
Si      -2.62679508      -2.67968871      -0.11038161       0.00000000
Si       0.49746402      -2.45995290       2.85535296       0.00000000
Si      -2.68071498       2.73339684      -0.06996549       0.00000000
Si       0.02490741       2.66597253      -2.82998576       0.00000000
