10
Lattice="16.28999089631971 0.0 0.0 0.0 16.28999089631971 0.0 0.0 0.0 34.279985188174585" Properties=species:S:1:pos:R:3:initial_magmoms:R:1 pbc="T T T"
Si       0.10744884      -1.69445322       1.56848160       0.00000000
Si      -1.30303710      -0.33456402      -1.88605156       0.00000000
Si       1.99088235       0.24669576      -1.18344859       0.00000000
Si      -1.01336832       1.61559333       1.38511786       0.00000000
Si       0.30276594      -3.47670954       0.12443642       0.00000000
Si      -2.10057921      -1.68948477       2.31475729       0.00000000
Si       2.15549280       2.60076366      -1.13850750       0.00000000
Si      -0.49340781       1.03599513      -3.53810781       0.00000000
Si       3.71327292      -0.33560658       0.26800107       0.00000000
Si      -3.49946667      -0.18309960      -1.31419253       0.00000000
