10
Lattice="16.28999089631971 0.0 0.0 0.0 16.28999089631971 0.0 0.0 0.0 34.279985188174585" Properties=species:S:1:pos:R:3:initial_magmoms:R:1 pbc="T T T"
Si      -1.35604476       1.35639606       1.35683685       0.00000000
Si       1.36001952      -1.35840681       1.35738533       0.00000000
Si       1.35734796       1.36957788      -1.35885252       0.00000000
Si      -1.36906047      -1.35741312      -1.37279762       0.00000000
Si       2.62905939      -0.04900032      -2.69447347       0.00000000
Si      -2.71072116      -2.71477737       0.00089128       0.00000000
Si      -2.71339272      -0.00136836       2.71501062       0.00000000
Si       0.00177561       2.71391304       2.71470210       0.00000000
Si       2.71687878       2.71291772      -0.00253672       0.00000000
Si      -2.71415835       2.71610730      -0.00373652       0.00000000
