10
Lattice="16.28999089631971 0.0 0.0 0.0 16.28999089631971 0.0 0.0 0.0 34.279985188174585" Properties=species:S:1:pos:R:3:initial_magmoms:R:1 pbc="T T T"
Si       1.35704822       1.35708732      -1.35697397       0.00000000
Si      -1.35695441      -1.35798327      -1.35680257       0.00000000
Si      -1.35736711       1.35738054       1.35820805       0.00000000
Si       1.35774869      -1.35757602       1.35810521       0.00000000
Si      -2.71464446       2.71472850      -0.00010284       0.00000000
Si      -2.71514945       0.00047241       2.71442786       0.00000000
Si       2.71495004       2.71495656       0.00013712       0.00000000
Si      -2.71490510      -2.71507059       0.00010284       0.00000000
Si       2.71475456      -0.00026064       2.71545626       0.00000000
Si       0.00125107      -2.71508688       2.71521630       0.00000000
