10
Lattice="16.28999089631971 0.0 0.0 0.0 16.28999089631971 0.0 0.0 0.0 34.279985188174585" Properties=species:S:1:pos:R:3:initial_magmoms:R:1 pbc="T T T"
Si       1.15268040      -1.94396715      -0.50285338       0.00000000
Si      -2.09363967      -0.02145393      -1.02901717       0.00000000
Si      -0.50424066      -0.16338870       2.28654485       0.00000000
Si       1.14693003       1.82517137      -1.07814042       0.00000000
Si      -2.05164405       1.54642666       2.40673055       0.00000000
Si      -0.48392703      -3.08783466      -1.70796694       0.00000000
Si      -2.47937058       2.26612538      -1.35032365       0.00000000
Si      -1.85121189      -1.53735246      -2.78932967       0.00000000
Si       1.50860061       0.20736781       3.35786355       0.00000000
Si      -0.52632990       2.59721963      -2.65580906       0.00000000
