10
Lattice="16.28999089631971 0.0 0.0 0.0 16.28999089631971 0.0 0.0 0.0 34.279985188174585" Properties=species:S:1:pos:R:3:initial_magmoms:R:1 pbc="T T T"
Si      -1.35549115       1.35511623      -1.36427561       0.00000000
Si       1.36090938      -1.36044306      -1.36348717       0.00000000
Si       1.36438241       1.34750880       1.37881033       0.00000000
Si      -1.36155103      -1.37735208       1.40143514       0.00000000
Si      -2.71026529       2.70928764      -0.00178256       0.00000000
Si      -2.71182913      -2.71630863      -0.00305092       0.00000000
Si       2.71734184       2.71189404      -0.00346228       0.00000000
Si       0.00229119       2.71202436      -2.72049542       0.00000000
Si      -2.71340926      -0.00306252      -2.72070110       0.00000000
Si       2.71691830      -2.71766070      -0.00411360       0.00000000
