10
Lattice="16.28999089631971 0.0 0.0 0.0 16.28999089631971 0.0 0.0 0.0 34.279985188174585" Properties=species:S:1:pos:R:3:initial_magmoms:R:1 pbc="T T T"
Si      -1.35617508      -1.35645748      -1.35731677       0.00000000
Si       1.35863664       1.35840518      -1.35707681       0.00000000
Si      -1.35523026       1.36021337       1.36029913       0.00000000
Si       1.36062186      -1.36064736       1.35803665       0.00000000
Si      -2.71459818      -2.71410201      -0.00229676       0.00000000
Si      -2.71358820       0.00090247      -2.71531914       0.00000000
Si       0.00127062      -2.71408572      -2.71501062       0.00000000
Si      -2.71277370       2.71633958      -0.00071988       0.00000000
Si       2.71627346      -2.71305945      -0.00106268       0.00000000
Si       2.71606332       0.00125922      -2.71490778       0.00000000
