10
Lattice="16.28999089631971 0.0 0.0 0.0 16.28999089631971 0.0 0.0 0.0 34.279985188174585" Properties=species:S:1:pos:R:3:initial_magmoms:R:1 pbc="T T T"
Si      -1.36438241      -1.34750880      -1.37881033       0.00000000
Si       1.35295943       1.36438524      -1.38227262       0.00000000
Si       1.29783407      -1.42447905       1.44106282       0.00000000
Si      -1.27975006       1.32224301       1.57009276       0.00000000
Si      -2.69710013       2.69928558      -0.00116552       0.00000000
Si       2.70854807      -2.70997182      -0.00551908       0.00000000
Si       2.71118705       2.71376739      -0.01902540       0.00000000
Si      -0.00347303      -2.70795186      -2.74229751       0.00000000
Si      -2.72593343      -2.72486088       0.02262480       0.00000000
Si       2.71003046       0.00687438      -2.74205755       0.00000000
