10
Lattice="16.28999089631971 0.0 0.0 0.0 16.28999089631971 0.0 0.0 0.0 34.279985188174585" Properties=species:S:1:pos:R:3:initial_magmoms:R:1 pbc="T T T"
Si      -2.11027176       0.84279573       0.73547749       0.00000000
Si       1.23225120       1.21251357       1.73830474       0.00000000
Si       0.73123596       0.83230497      -2.22549216       0.00000000
Si      -0.59781042      -2.42148244      -0.04987741       0.00000000
Si      -3.03637455       1.50597792      -1.38240974       0.00000000
Si       0.18262719       3.42181224       1.59765388       0.00000000
Si      -0.84949092      -3.13737907       2.26206893       0.00000000
Si       1.10312037       0.07048683       3.85214693       0.00000000
Si      -1.92511962       2.67307497       2.39363558       0.00000000
Si       0.98890956      -3.74977067      -1.24758648       0.00000000
