10
Lattice="16.28999089631971 0.0 0.0 0.0 16.28999089631971 0.0 0.0 0.0 34.279985188174585" Properties=species:S:1:pos:R:3:initial_magmoms:R:1 pbc="T T T"
Si      -1.11089655      -0.37563111       2.08395002       0.00000000
Si       1.49211254       1.43428563       1.23610268       0.00000000
Si       1.29841956      -1.50728112      -1.42094046       0.00000000
Si      -1.40449122       1.19244429      -1.68205125       0.00000000
Si      -2.08015155       1.81447794       1.75421066       0.00000000
Si       2.73487013      -2.08223667       0.40220729       0.00000000
Si      -0.04500927       2.87050977       2.22418952       0.00000000
Si      -3.29145966       2.01080502      -0.30536628       0.00000000
Si       2.79279737       2.68482006      -0.29340256       0.00000000
Si       0.11325413       2.54736504      -2.96642018       0.00000000
