10
Lattice="16.28999089631971 0.0 0.0 0.0 16.28999089631971 0.0 0.0 0.0 34.279985188174585" Properties=species:S:1:pos:R:3:initial_magmoms:R:1 pbc="T T T"
Si      -1.98988866      -1.06147269       0.57765235       0.00000000
Si       1.11089655       0.37563111      -2.08395002       0.00000000
Si      -0.96925500       2.19010905      -0.32973936       0.00000000
Si       1.52196885      -0.51080553       1.81289803       0.00000000
Si       2.60300909       1.80991674      -0.84784735       0.00000000
Si       2.46386480       1.63745451       1.71074362       0.00000000
Si       1.06588728       3.24614088       0.14023950       0.00000000
Si      -2.24564166       0.16286742       2.65598046       0.00000000
Si      -1.88869518       2.35722816       1.77135066       0.00000000
Si       3.11950961      -1.95263343       0.73962537       0.00000000
