10
Lattice="16.28999089631971 0.0 0.0 0.0 16.28999089631971 0.0 0.0 0.0 34.279985188174585" Properties=species:S:1:pos:R:3:initial_magmoms:R:1 pbc="T T T"
Si       0.90075555       2.00003733      -0.84798447       0.00000000
Si       2.12348295      -1.09159290       0.04161593       0.00000000
Si      -0.46548675       1.04653476       2.24630012       0.00000000
Si      -1.12946715      -0.62758854      -2.24136380       0.00000000
Si      -1.97073162       2.47593339       1.02603481       0.00000000
Si       1.94719257       1.32709743      -2.81980460       0.00000000
Si       1.71009162      -3.04929252      -1.17570131       0.00000000
Si       2.55518980      -1.70768070       2.29778869       0.00000000
Si      -2.95989300       0.83901645      -2.39449258       0.00000000
Si       0.59828283      -0.44637858      -3.90055029       0.00000000
