10
Lattice="16.28999089631971 0.0 0.0 0.0 16.28999089631971 0.0 0.0 0.0 34.279985188174585" Properties=species:S:1:pos:R:3:initial_magmoms:R:1 pbc="T T T"
Si      -0.41339133      -1.95769962      -1.21731723       0.00000000
Si       0.43170685      -0.61608780       2.25617277       0.00000000
Si      -2.12348295       1.09159290      -0.04161593       0.00000000
Si       1.97326376       0.60263226      -1.54373144       0.00000000
Si      -1.22272740       3.09163023      -0.88960039       0.00000000
Si      -0.17629038       2.41869033      -2.86142052       0.00000000
Si       3.69827702       0.72283617       0.09982337       0.00000000
Si       1.44583102      -3.39599259      -1.43317842       0.00000000
Si      -0.85379148      -1.55821995      -3.55168269       0.00000000
Si      -3.25295010       0.46400436      -2.28297973       0.00000000
