10
Lattice="16.28999089631971 0.0 0.0 0.0 16.28999089631971 0.0 0.0 0.0 34.279985188174585" Properties=species:S:1:pos:R:3:initial_magmoms:R:1 pbc="T T T"
Si      -1.35640314       1.35413883      -1.35800237       0.00000000
Si      -1.35653346      -1.35839052       1.35700825       0.00000000
Si       1.35884664       1.35654975       1.35676829       0.00000000
Si       1.35938421      -1.35814617      -1.36317865       0.00000000
Si      -2.70215262       0.00329058      -2.70235445       0.00000000
Si      -2.71353933       2.71467963       0.00109696       0.00000000
Si      -2.71353933      -0.00146610       2.71483922       0.00000000
Si       2.71504987       2.71433754      -0.00044564       0.00000000
Si       0.00107514       2.71432125       2.71507918       0.00000000
Si      -2.71546155      -2.71524978       0.00003428       0.00000000
