10
Lattice="16.28999089631971 0.0 0.0 0.0 16.28999089631971 0.0 0.0 0.0 34.279985188174585" Properties=species:S:1:pos:R:3:initial_magmoms:R:1 pbc="T T T"
Si      -0.54882639       1.71953982      -1.40239498       0.00000000
Si      -1.04643702       0.67293990       1.97182013       0.00000000
Si       2.35855484       0.33909264       0.25812843       0.00000000
Si      -1.34890974      -1.77347601      -1.08074570       0.00000000
Si       2.14955414      -1.81605807       1.31768909       0.00000000
Si       0.84716701       0.92367558      -3.10995055       0.00000000
Si       2.86318646       0.33749622      -2.03808338       0.00000000
Si      -1.94719257      -1.32709743       2.81980460       0.00000000
Si      -3.07665972      -1.95468597       0.57844079       0.00000000
Si      -1.55483163       2.97864279       1.66199745       0.00000000
