10
Lattice="16.28999089631971 0.0 0.0 0.0 16.28999089631971 0.0 0.0 0.0 34.279985188174585" Properties=species:S:1:pos:R:3:initial_magmoms:R:1 pbc="T T T"
Si       1.35431688      -1.35462753       1.36088189       0.00000000
Si      -1.35775521      -1.35742941      -1.35621981       0.00000000
Si       1.35744322       1.35731538      -1.35673401       0.00000000
Si      -1.36088289       1.35850455       1.36047053       0.00000000
Si       2.71469496      -0.00017919      -2.71398222       0.00000000
Si      -0.00032580       2.71480995      -2.71408506       0.00000000
Si       2.71430889      -2.71472850       0.00106268       0.00000000
Si      -2.71544526       0.00004887      -2.71370798       0.00000000
Si       0.00001629      -2.71520091      -2.71453070       0.00000000
Si       2.71467704       2.71583622      -0.00013712       0.00000000
