10
Lattice="16.28999089631971 0.0 0.0 0.0 16.28999089631971 0.0 0.0 0.0 34.279985188174585" Properties=species:S:1:pos:R:3:initial_magmoms:R:1 pbc="T T T"
Si      -0.82668492       2.16707110      -0.06208109       0.00000000
Si      -0.93299346      -0.74352447       2.00119809       0.00000000
Si       2.25859221      -0.04264722       0.60418508       0.00000000
Si      -0.87571782      -1.14938982      -1.88995948       0.00000000
Si       3.17583324       0.44487990      -1.49957879       0.00000000
Si      -2.83952619       1.79631459      -1.13339978       0.00000000
Si       0.69318837      -2.82610323      -2.06698142       0.00000000
Si      -1.08134649       2.59594086       2.24489464       0.00000000
Si      -0.14905350      -2.90426265       2.18140808       0.00000000
Si       2.62205469       1.68448374       2.21226008       0.00000000
