10
Lattice="16.28999089631971 0.0 0.0 0.0 16.28999089631971 0.0 0.0 0.0 34.279985188174585" Properties=species:S:1:pos:R:3:initial_magmoms:R:1 pbc="T T T"
Si       1.54984689       1.10908836       1.48465126       0.00000000
Si      -1.11004947      -1.60376679       1.45817338       0.00000000
Si       1.45621197      -0.98487711      -1.72318726       0.00000000
Si      -1.81705176       1.86344568      -0.19433334       0.00000000
Si      -2.44827297      -0.19932444       2.80632711       0.00000000
Si       2.42564616       1.04971131      -2.68947202       0.00000000
Si       0.27813546       2.52766656       2.82027222       0.00000000
Si      -2.43527355      -3.04868979       0.14727174       0.00000000
Si       3.19774559       2.30803236       0.37174612       0.00000000
Si      -2.03120010       1.24791174      -3.27648282       0.00000000
