10
Lattice="16.28999089631971 0.0 0.0 0.0 16.28999089631971 0.0 0.0 0.0 34.279985188174585" Properties=species:S:1:pos:R:3:initial_magmoms:R:1 pbc="T T T"
Si       0.90912861       1.45790613      -1.59515144       0.00000000
Si       1.05814953      -1.69274277       1.31292417       0.00000000
Si      -1.54666708      -1.08610317      -1.53917220       0.00000000
Si      -0.54415116       1.55722626       1.84481271       0.00000000
Si      -1.07158389      -2.44139859       1.95536573       0.00000000
Si      -3.37120640      -0.60362595      -0.16313854       0.00000000
Si       2.80499139       1.95408324      -0.34314284       0.00000000
Si      -2.93080625      -1.00310562       2.17122692       0.00000000
Si      -0.33515046       3.71237697       0.78525206       0.00000000
Si       0.92755260       0.34195968      -3.73364095       0.00000000
