10
Lattice="16.28999089631971 0.0 0.0 0.0 16.28999089631971 0.0 0.0 0.0 34.279985188174585" Properties=species:S:1:pos:R:3:initial_magmoms:R:1 pbc="T T T"
Si      -1.36901649      -1.34425080       1.38238574       0.00000000
Si       1.34265438       1.37204154       1.38461394       0.00000000
Si      -1.38766691       1.36995642      -1.36452586       0.00000000
Si       1.46373795      -1.43754363      -1.56113539       0.00000000
Si       0.00392589       2.59981884      -2.78858035       0.00000000
Si       2.70572013      -2.71650411       0.00055876       0.00000000
Si      -2.73034186      -2.69228088      -0.02484615       0.00000000
Si       2.71073745       2.72828178       0.01392454       0.00000000
Si      -0.01453068      -2.69936703       2.74494735       0.00000000
Si       2.70044217       0.01545921       2.74463883       0.00000000
