10
Lattice="16.28999089631971 0.0 0.0 0.0 16.28999089631971 0.0 0.0 0.0 34.279985188174585" Properties=species:S:1:pos:R:3:initial_magmoms:R:1 pbc="T T T"
Si      -1.35778234      -1.35690813       1.35621981       0.00000000
Si       1.35701525       1.35782037       1.35728249       0.00000000
Si      -1.35727735       1.35734796      -1.35831089       0.00000000
Si       1.35736711      -1.35738054      -1.35820805       0.00000000
Si       2.71441534      -0.00029322      -2.71518202       0.00000000
Si       2.71500178       2.71485882      -0.00017140       0.00000000
Si       2.71511581      -2.71495656      -0.00010284       0.00000000
Si      -2.71504885       2.71511946       0.00000000       0.00000000
Si       0.00041270      -2.71536381      -2.71501062       0.00000000
Si      -0.00107412       2.71513575      -2.71552482       0.00000000
