10
Lattice="16.28999089631971 0.0 0.0 0.0 16.28999089631971 0.0 0.0 0.0 34.279985188174585" Properties=species:S:1:pos:R:3:initial_magmoms:R:1 pbc="T T T"
Si       1.31254720       1.98951399      -0.46891618       0.00000000
Si       0.67009404      -1.66477284      -1.70148802       0.00000000
Si      -1.64005506       0.80161461      -1.69147825       0.00000000
Si      -0.62162055      -0.65736666       2.46942867       0.00000000
Si      -0.58431645      -2.95849206       2.09481679       0.00000000
Si      -3.04553997       2.11937787      -0.36700173       0.00000000
Si       2.52519109       2.36768634       1.56347672       0.00000000
Si       3.14844649       1.06007175      -1.94521885       0.00000000
Si       2.25349018      -3.14418177      -0.42277529       0.00000000
Si      -0.49671527       2.23506945      -3.22142913       0.00000000
