10
Lattice="16.28999089631971 0.0 0.0 0.0 16.28999089631971 0.0 0.0 0.0 34.279985188174585" Properties=species:S:1:pos:R:3:initial_magmoms:R:1 pbc="T T T"
Si       1.34972261       1.35739194      -1.38398662       0.00000000
Si      -1.36317269      -1.36211671      -1.38518642       0.00000000
Si       1.39044761      -1.41592258       1.35879081       0.00000000
Si      -1.35898665       1.16675007       1.65109641       0.00000000
Si      -0.28453091      -2.34712414       2.83005432       0.00000000
Si       2.70573479       2.71258962      -0.00658176       0.00000000
Si      -2.72874672       2.69770056       0.02156212       0.00000000
Si      -2.71516086      -2.72207107      -0.01844264       0.00000000
Si       2.70671219      -0.00138791      -2.74342875       0.00000000
Si       2.72513618      -2.72813095      -0.02533292       0.00000000
