10
Lattice="16.28999089631971 0.0 0.0 0.0 16.28999089631971 0.0 0.0 0.0 34.279985188174585" Properties=species:S:1:pos:R:3:initial_magmoms:R:1 pbc="T T T"
Si       0.95324193       0.67062672       2.01799530       0.00000000
Si      -0.21129759      -2.32554411       0.06989693       0.00000000
Si       0.95405643       0.70771905      -2.03835762       0.00000000
Si      -2.03795312       1.19219994       0.21095915       0.00000000
Si       2.99328750      -0.41326101       1.51730155       0.00000000
Si      -2.19275522      -2.31733395      -1.13240566       0.00000000
Si       0.67987944       3.05030250      -1.93524337       0.00000000
Si      -1.44169595       3.33250950       1.14354666       0.00000000
Si       0.55752525       3.00798108       2.35675030       0.00000000
Si      -0.40876497      -3.16399041       2.24619728       0.00000000
