10
Lattice="16.28999089631971 0.0 0.0 0.0 16.28999089631971 0.0 0.0 0.0 34.3005442915855" Properties=species:S:1:pos:R:3:initial_magmoms:R:1 pbc="T T T"
Si       1.35609363       1.35772263       1.35675879       0.00000000
Si       1.35733167      -1.35738868      -1.35717039       0.00000000
Si      -1.35769005      -1.35825043       1.35624428       0.00000000
Si      -1.35783666       1.35796698      -1.35771920       0.00000000
Si      -0.00288333      -2.71245509       2.71581571       0.00000000
Si      -2.71241532      -0.00215028       2.71650172       0.00000000
Si       0.00138465      -2.71440503      -2.71485530       0.00000000
Si      -2.71474479      -2.71471801      -0.00020580       0.00000000
Si      -2.71476108       2.71490769       0.00020580       0.00000000
Si       2.71533123       2.71513575       0.00006860       0.00000000
