10
Lattice="16.28999089631971 0.0 0.0 0.0 16.28999089631971 0.0 0.0 0.0 34.3005442915855" Properties=species:S:1:pos:R:3:initial_magmoms:R:1 pbc="T T T"
Si       1.35480672      -1.35420466       1.35957143       0.00000000
Si      -1.35705474      -1.35646758      -1.35645008       0.00000000
Si      -1.35472527       1.35610015       1.36025745       0.00000000
Si       1.35769005       1.35825043      -1.35624428       0.00000000
Si      -2.71367128      -2.71246486       0.00181793       0.00000000
Si       0.00065160      -2.71425676      -2.71375768       0.00000000
Si      -2.71474479       0.00093179      -2.71362048       0.00000000
Si       2.71502172       0.00086174      -2.71341467       0.00000000
Si       2.71378368       2.71597306       0.00051451       0.00000000
Si      -0.00014661       2.71621741      -2.71396348       0.00000000
