10
Lattice="16.28999089631971 0.0 0.0 0.0 16.28999089631971 0.0 0.0 0.0 34.3005442915855" Properties=species:S:1:pos:R:3:initial_magmoms:R:1 pbc="T T T"
Si      -0.82951938      -0.01298639      -2.16848162       0.00000000
Si      -1.93078854       0.51033475       1.22466732       0.00000000
Si       1.86005736       1.39909434       0.34869953       0.00000000
Si       0.88374879      -2.18376802       0.19606202       0.00000000
Si       1.00396899      -1.02724318      -3.27642412       0.00000000
Si      -2.85557184      -1.20498337      -1.82211453       0.00000000
Si       3.15501462      -1.67784949      -0.50603621       0.00000000
Si       3.42972918      -0.12888485       1.25557213       0.00000000
Si      -1.28295153       0.36508659       3.43221728       0.00000000
Si      -2.41530201       2.73643818       0.83964349       0.00000000
