10
Lattice="16.28999089631971 0.0 0.0 0.0 16.28999089631971 0.0 0.0 0.0 34.3005442915855" Properties=species:S:1:pos:R:3:initial_magmoms:R:1 pbc="T T T"
Si       2.22729912       0.87539202      -0.61408299       0.00000000
Si      -0.48544200       2.49155550       0.02610273       0.00000000
Si       0.04204449      -2.10952961      -1.64334000       0.00000000
Si      -0.30423204      -2.20850765       1.64639275       0.00000000
Si       2.72080467       0.26735148       1.60176771       0.00000000
Si       0.93620259      -0.68066625       3.04035877       0.00000000
Si       1.35744570       2.89825164      -1.36015454       0.00000000
Si      -2.46827709       0.96547572      -2.41338765       0.00000000
Si      -2.07003546      -2.80323926      -1.05354181       0.00000000
Si      -3.47182254      -0.91681260      -0.84513158       0.00000000
