10
Lattice="16.28999089631971 0.0 0.0 0.0 16.28999089631971 0.0 0.0 0.0 34.3005442915855" Properties=species:S:1:pos:R:3:initial_magmoms:R:1 pbc="T T T"
Si       1.35052245       1.33820721       1.37572700       0.00000000
Si       1.35482301      -1.35878148      -1.35854242       0.00000000
Si      -1.35809730       1.35609363      -1.35867962       0.00000000
Si      -1.35653346      -1.35428544       1.38810950       0.00000000
Si      -0.09501957       2.65771350       2.75248302       0.00000000
Si      -2.71282257       2.71319724       0.00332715       0.00000000
Si       2.71292031       2.71495656       0.00305275       0.00000000
Si      -0.00107514       2.71393029      -2.71509540       0.00000000
Si       2.71406061      -0.00136836      -2.71523260       0.00000000
Si       2.71479366      -2.71604799       0.00178363       0.00000000
