10
Lattice="16.28999089631971 0.0 0.0 0.0 16.28999089631971 0.0 0.0 0.0 34.3005442915855" Properties=species:S:1:pos:R:3:initial_magmoms:R:1 pbc="T T T"
Si      -1.35052245      -1.33820721      -1.37572700       0.00000000
Si       1.36239786       1.37674935      -1.37267425       0.00000000
Si      -1.44554202       1.31950629       1.37675602       0.00000000
Si       1.48973679      -1.28023110       1.46326204       0.00000000
Si       0.32386149       1.98739629       2.86245062       0.00000000
Si       2.36504736       0.50357277       2.92347132       0.00000000
Si      -2.70705591      -2.69249265       0.01238250       0.00000000
Si      -2.69011431       2.73919608      -0.02764625       0.00000000
Si       0.00430056      -2.69698869      -2.73426942       0.00000000
Si      -2.70861975       0.01788642      -2.73440662       0.00000000
