10
Lattice="16.28999089631971 0.0 0.0 0.0 16.28999089631971 0.0 0.0 0.0 34.3005442915855" Properties=species:S:1:pos:R:3:initial_magmoms:R:1 pbc="T T T"
Si      -0.94343535       0.48327543      -2.06249288       0.00000000
Si      -1.28174607      -0.90194472       1.75015195       0.00000000
Si       2.01078873      -1.25509563       0.12787250       0.00000000
Si       1.47238794       1.93166820       0.34626419       0.00000000
Si       2.88259695       0.01407456       1.96861224       0.00000000
Si       0.96703956       1.20373326      -3.30890676       0.00000000
Si       2.73644307       1.87162326      -1.82321215       0.00000000
Si       0.13924692       3.66407712       1.47482133       0.00000000
Si       0.14428053      -0.64154907       3.92463617       0.00000000
Si      -3.08355039       0.45571275       2.53741848       0.00000000
