10
Lattice="16.28999089631971 0.0 0.0 0.0 16.28999089631971 0.0 0.0 0.0 34.3005442915855" Properties=species:S:1:pos:R:3:initial_magmoms:R:1 pbc="T T T"
Si       0.65655216      -2.28103983      -0.15318632       0.00000000
Si       2.02709502       1.21261131       0.28195063       0.00000000
Si      -1.46445471      -0.62061642       1.82122272       0.00000000
Si      -1.42602660      -0.26039565      -2.17448422       0.00000000
Si      -1.38175038      -2.52069831      -1.33175368       0.00000000
Si       2.73831642       0.65562363      -1.95602393       0.00000000
Si      -1.96819038       1.50588018       2.53494884       0.00000000
Si      -2.43286263       2.58673797       0.38982590       0.00000000
Si      -3.22783092       1.09726182      -1.38721769       0.00000000
Si       1.18381059      -2.79754686       2.12814416       0.00000000
