10
Lattice="16.28999089631971 0.0 0.0 0.0 16.28999089631971 0.0 0.0 0.0 34.3005442915855" Properties=species:S:1:pos:R:3:initial_magmoms:R:1 pbc="T T T"
Si      -0.87180822      -1.26917019      -1.84073974       0.00000000
Si       0.79615746      -2.10409785       0.84550889       0.00000000
Si      -0.71122140       0.55698768       2.23797456       0.00000000
Si       2.13742719       0.78941340      -0.80836138       0.00000000
Si      -1.41020901       1.91759364      -1.62234805       0.00000000
Si       0.94737753      -0.97033014       2.92347132       0.00000000
Si      -2.73831642      -0.65562363       1.95602393       0.00000000
Si      -2.88259695      -0.01407456      -1.96861224       0.00000000
Si       1.81276749       3.11337738      -1.17829296       0.00000000
Si       2.65841397      -2.96852670      -0.22820165       0.00000000
