10
Lattice="16.28999089631971 0.0 0.0 0.0 16.28999089631971 0.0 0.0 0.0 34.3005442915855" Properties=species:S:1:pos:R:3:initial_magmoms:R:1 pbc="T T T"
Si      -1.76940351      -0.66789000      -1.48569461       0.00000000
Si      -1.26405513       0.06004494       2.16947634       0.00000000
Si       2.04118587      -1.48382352       0.06102070       0.00000000
Si       0.92551635       1.99806624      -1.37246845       0.00000000
Si       1.95892137       1.25582868       2.61353143       0.00000000
Si      -0.32386149      -1.98739629      -2.86245062       0.00000000
Si       1.16587530      -3.26762739      -1.39918858       0.00000000
Si      -0.72565434      -3.12671889       1.95108465       0.00000000
Si      -2.73644307      -1.87162326       1.82321215       0.00000000
Si       2.39363631       0.75627954      -2.86128440       0.00000000
