10
Lattice="16.28999089631971 0.0 0.0 0.0 16.28999089631971 0.0 0.0 0.0 34.3005442915855" Properties=species:S:1:pos:R:3:initial_magmoms:R:1 pbc="T T T"
Si      -0.58979574       2.21816043       0.46247450       0.00000000
Si       0.41456421       0.43478010      -2.33343303       0.00000000
Si      -2.01326481      -1.28410812       0.50620772       0.00000000
Si       2.11613616      -0.46227762       1.15935904       0.00000000
Si       2.44669284      -2.65823478       0.39833244       0.00000000
Si       1.38391695       3.40159635      -0.14169563       0.00000000
Si       2.00316501       2.24987706      -2.12142125       0.00000000
Si      -1.20977685       2.29917060       2.67379752       0.00000000
Si      -1.51799994       1.77469776      -2.97289844       0.00000000
Si      -2.37190545       2.85438267      -0.93174051       0.00000000
