10
Lattice="16.28999089631971 0.0 0.0 0.0 16.28999089631971 0.0 0.0 0.0 34.3005442915855" Properties=species:S:1:pos:R:3:initial_magmoms:R:1 pbc="T T T"
Si       2.06847162      -0.68053104      -0.78637472       0.00000000
Si       0.24277313       1.38969990       1.84067114       0.00000000
Si      -0.93485771       1.46717514      -1.55707408       0.00000000
Si      -0.94332851      -1.90670377       1.13318772       0.00000000
Si      -2.07883925       1.16644545       2.10341345       0.00000000
Si       0.91823798      -1.93313919       2.58008838       0.00000000
Si      -3.46798529       0.25979292       0.32520364       0.00000000
Si       2.71580364      -1.99043763       1.07213271       0.00000000
Si      -3.01856048      -1.39701248      -1.33494363       0.00000000
Si      -2.16019151       0.00757485      -2.97135491       0.00000000
