10
Lattice="16.28999089631971 0.0 0.0 0.0 16.28999089631971 0.0 0.0 0.0 34.3005442915855" Properties=species:S:1:pos:R:3:initial_magmoms:R:1 pbc="T T T"
Si       0.22077837      -2.27858004       0.27553643       0.00000000
Si      -1.59752772       0.36681822      -1.63085459       0.00000000
Si      -0.88128900       0.48571893       2.14886170       0.00000000
Si       2.02605246       1.19199699      -0.34636709       0.00000000
Si       2.85557184       1.20498337       1.82211453       0.00000000
Si       0.92478330       1.71531812       3.04678185       0.00000000
Si       1.93759776      -2.51488278       1.86790578       0.00000000
Si      -3.67092544      -0.47684088      -0.82321352       0.00000000
Si      -0.60421239      -0.02153538      -3.76537865       0.00000000
Si      -1.61251452       2.59554176      -2.35246984       0.00000000
