10
Lattice="16.28999089631971 0.0 0.0 0.0 16.28999089631971 0.0 0.0 0.0 34.3005442915855" Properties=species:S:1:pos:R:3:initial_magmoms:R:1 pbc="T T T"
Si      -1.96564914       1.28209209      -0.08863266       0.00000000
Si       1.80607230       1.22959919       0.89792015       0.00000000
Si       0.88128900      -0.48571893      -2.14886170       0.00000000
Si      -0.36694854      -1.88235837       1.49337793       0.00000000
Si       1.10206737      -2.76429897      -1.87332527       0.00000000
Si      -1.95916572       2.09336993       2.08118669       0.00000000
Si       1.82156409      -2.64153753       1.85277924       0.00000000
Si       1.32155883       3.45570263       0.51289633       0.00000000
Si      -3.62521244      -0.13119966      -0.91421292       0.00000000
Si       3.73686084       0.71926444      -0.32674717       0.00000000
