10
Lattice="16.28999089631971 0.0 0.0 0.0 16.28999089631971 0.0 0.0 0.0 34.3005442915855" Properties=species:S:1:pos:R:3:initial_magmoms:R:1 pbc="T T T"
Si      -1.80582795      -1.18385946      -1.05837819       0.00000000
Si      -0.45366021      -1.16978490       2.08969323       0.00000000
Si       0.36391860       2.41831566       0.55594353       0.00000000
Si       2.09679993      -0.02666673      -1.39270578       0.00000000
Si       0.51541560      -3.01523013       0.90824462       0.00000000
Si       2.74193280       1.84625973      -0.06297583       0.00000000
Si       2.61711882       0.88650180       2.17921770       0.00000000
Si       0.67644225       0.19593612       3.64239883       0.00000000
Si       1.73333745      -3.18871863      -1.10190560       0.00000000
Si      -3.75647400       0.07091037      -1.03556831       0.00000000
