10
Lattice="16.28999089631971 0.0 0.0 0.0 16.28999089631971 0.0 0.0 0.0 34.3005442915855" Properties=species:S:1:pos:R:3:initial_magmoms:R:1 pbc="T T T"
Si      -1.30882005       1.35096228      -1.40048172       0.00000000
Si       1.35078309       1.35982404       1.36471652       0.00000000
Si      -1.36694277      -1.35559190       1.36540253       0.00000000
Si       1.50837255      -1.24203757      -1.43464165       0.00000000
Si      -2.16314910      -0.35502426      -2.85389061       0.00000000
Si       2.69472438      -2.69277000       0.01756532       0.00000000
Si       0.18239913       2.62255968      -2.78518658       0.00000000
Si      -2.70886410      -2.71380518      -0.00641421       0.00000000
Si       2.70427032       0.00659745       2.72641459       0.00000000
Si      -0.00956223      -2.70827695       2.72586578       0.00000000
