10
Lattice="16.28999089631971 0.0 0.0 0.0 16.28999089631971 0.0 0.0 0.0 34.3005442915855" Properties=species:S:1:pos:R:3:initial_magmoms:R:1 pbc="T T T"
Si       1.30882005      -1.35096228       1.40048172       0.00000000
Si      -0.85432905      -1.70598654      -1.45340890       0.00000000
Si       1.49121918       1.27159740      -1.38470487       0.00000000
Si      -1.42115589       1.36471104       1.39425959       0.00000000
Si      -2.63893113      -2.65400427      -0.01481784       0.00000000
Si       2.81719260      -2.59299985      -0.03415993       0.00000000
Si       2.65960314       0.00886176       2.76519823       0.00000000
Si      -0.05812272      -2.70655418       2.76588425       0.00000000
Si       2.71881729       2.75685444       0.00521026       0.00000000
Si      -0.06007752       2.72751615       2.76389481       0.00000000
