10
Lattice="16.28999089631971 0.0 0.0 0.0 16.28999089631971 0.0 0.0 0.0 34.3005442915855" Properties=species:S:1:pos:R:3:initial_magmoms:R:1 pbc="T T T"
Si       1.35441576      -1.35547461       1.35655298       0.00000000
Si       1.35651717       1.35715248      -1.35693029       0.00000000
Si      -1.35728280       1.35632169       1.35878252       0.00000000
Si      -1.35832536      -1.35742941      -1.35693029       0.00000000
Si       0.00291591      -2.69189318       2.71605582       0.00000000
Si       2.69596242       0.01107720       2.73145677       0.00000000
Si       2.71495656       2.71308321       0.00017150       0.00000000
Si       2.71406061       0.00004887      -2.71434079       0.00000000
Si       2.71308321      -2.71541431       0.00000000       0.00000000
Si      -2.71479366      -2.71419093       0.00020580       0.00000000
