10
Lattice="16.28999089631971 0.0 0.0 0.0 16.28999089631971 0.0 0.0 0.0 34.3005442915855" Properties=species:S:1:pos:R:3:initial_magmoms:R:1 pbc="T T T"
Si       1.35780408      -1.35692442      -1.35994874       0.00000000
Si      -1.35997065       1.35726651      -1.36032605       0.00000000
Si      -1.36876725      -1.34422311       1.37757923       0.00000000
Si       1.37461536       1.34454402       1.38687468       0.00000000
Si       2.71046052      -2.71484540       0.00243534       0.00000000
Si       2.71531494       2.71358820      -0.00137202       0.00000000
Si      -2.71479366       2.71604799      -0.00178363       0.00000000
Si       2.71427238      -0.00016290      -2.71708483       0.00000000
Si      -0.00073305       2.71467963      -2.71701623       0.00000000
Si      -2.71894761      -2.71291121      -0.00126912       0.00000000
