10
Lattice="16.28999089631971 0.0 0.0 0.0 16.28999089631971 0.0 0.0 0.0 34.3005442915855" Properties=species:S:1:pos:R:3:initial_magmoms:R:1 pbc="T T T"
Si       0.58999122      -0.89699323       2.08372493       0.00000000
Si      -0.56847213       2.26561972       0.31683430       0.00000000
Si       1.44212112       0.17846509      -1.89016685       0.00000000
Si      -1.66343706      -1.43545918      -1.05323310       0.00000000
Si      -0.41801769      -0.63387715      -3.20881771       0.00000000
Si      -1.24349715       0.11726357       3.19166743       0.00000000
Si      -1.81718208       2.29785763       2.34142506       0.00000000
Si       2.61690705      -0.09105784       2.97608839       0.00000000
Si      -3.87376200      -1.09626880      -0.22734413       0.00000000
Si       1.08066231      -3.24690718       2.15496720       0.00000000
