10
Lattice="16.28999089631971 0.0 0.0 0.0 16.28999089631971 0.0 0.0 0.0 34.3005442915855" Properties=species:S:1:pos:R:3:initial_magmoms:R:1 pbc="T T T"
Si       2.07720306       0.78650889       0.60379282       0.00000000
Si      -0.48321027      -1.15570775       1.95856217       0.00000000
Si      -0.27471456      -1.54896464      -1.76160834       0.00000000
Si      -1.56967182       1.52797919      -0.90687260       0.00000000
Si      -2.54598039      -2.05488317      -1.05951010       0.00000000
Si      -2.12924961      -2.55659888       1.18559898       0.00000000
Si      -3.42972918       0.12888485      -1.25557213       0.00000000
Si      -0.39884436      -0.09242294      -3.63963279       0.00000000
Si       1.47113361      -2.44045118       2.31158357       0.00000000
Si       3.24241047      -1.12094489       1.36866108       0.00000000
