10
Lattice="16.28999089631971 0.0 0.0 0.0 16.28999089631971 0.0 0.0 0.0 34.3005442915855" Properties=species:S:1:pos:R:3:initial_magmoms:R:1 pbc="T T T"
Si       0.67126203       0.94691196      -2.00929271       0.00000000
Si       1.44941904      -1.37493499       1.24696268       0.00000000
Si      -1.69658721      -1.35563134      -0.96936822       0.00000000
Si       0.07783362       2.06356540       1.33683016       0.00000000
Si       2.56277538       2.06359798      -1.39939439       0.00000000
Si      -0.45214524      -2.18288641       2.95307271       0.00000000
Si      -3.72839004      -0.42483703      -0.35607415       0.00000000
Si       2.78374923       0.06434192       2.61699579       0.00000000
Si      -0.96045840       2.47040815      -2.81899181       0.00000000
Si       1.48030488       3.57645028       0.09861412       0.00000000
