10
Lattice="16.28999089631971 0.0 0.0 0.0 16.28999089631971 0.0 0.0 0.0 34.3005442915855" Properties=species:S:1:pos:R:3:initial_magmoms:R:1 pbc="T T T"
Si      -1.25579610      -1.38362373       1.46652059       0.00000000
Si       1.50866577       1.14732099       1.45105104       0.00000000
Si       0.96397704      -1.15382070      -1.91232501       0.00000000
Si      -1.77678288       2.37431637       0.88636086       0.00000000
Si      -2.01917808       1.95862815      -2.03608145       0.00000000
Si      -0.11455128       2.36364642       2.73591584       0.00000000
Si       2.77407297      -2.25653967      -0.56215193       0.00000000
Si       3.09452985      -0.40291686       2.17444992       0.00000000
Si       2.89966887       2.66209551      -0.00140632       0.00000000
Si      -3.20790825      -2.46933594      -0.10406791       0.00000000
