10
Lattice="16.28999089631971 0.0 0.0 0.0 16.28999089631971 0.0 0.0 0.0 34.3005442915855" Properties=species:S:1:pos:R:3:initial_magmoms:R:1 pbc="T T T"
Si      -1.35619137       1.35913986       1.36310439       0.00000000
Si       1.36142046      -1.35469269       1.36293289       0.00000000
Si       1.36635633       1.38466629      -1.34703458       0.00000000
Si      -1.35545832      -1.37627694      -1.37257135       0.00000000
Si      -2.50944355       0.12893535      -2.79790039       0.00000000
Si       2.71612944      -2.71021617       0.00291555       0.00000000
Si      -2.71460470      -2.71174743       0.00744322       0.00000000
Si      -2.71361589       2.71432125       0.00061741       0.00000000
Si       2.71482624       2.71518462       0.00768333       0.00000000
Si       0.00127062      -2.71318095       2.71965738       0.00000000
