10
Lattice="16.28999089631971 0.0 0.0 0.0 16.28999089631971 0.0 0.0 0.0 34.3005442915855" Properties=species:S:1:pos:R:3:initial_magmoms:R:1 pbc="T T T"
Si       1.35635427       1.35599589       1.35737620       0.00000000
Si      -1.35865116       1.35599589      -1.35816511       0.00000000
Si      -1.35886293      -1.35892809       1.35754770       0.00000000
Si       1.35711990      -1.35957969      -1.35981154       0.00000000
Si      -0.00114030       2.71318095       2.71406638       0.00000000
Si      -2.71583622       2.71241532      -0.00010290       0.00000000
Si       2.71368594       2.71515204       0.00030871       0.00000000
Si       2.71391400      -0.00149868       2.71506110       0.00000000
Si      -2.71523349      -2.71381626       0.00051451       0.00000000
Si       2.71476108      -2.71559187      -0.00099472       0.00000000
