10
Lattice="16.28999089631971 0.0 0.0 0.0 16.28999089631971 0.0 0.0 0.0 34.3005442915855" Properties=species:S:1:pos:R:3:initial_magmoms:R:1 pbc="T T T"
Si       1.35860229       1.34467434      -1.37428638       0.00000000
Si      -1.35509994      -1.36692648      -1.37384047       0.00000000
Si       1.34946360      -1.34291502       1.43204852       0.00000000
Si      -1.46811996       1.24178670       1.48881596       0.00000000
Si      -0.35245044      -2.24010306       2.92230511       0.00000000
Si      -2.39363631      -0.75627954       2.86128440       0.00000000
Si      -2.70632286       2.69703756      -0.00325855       0.00000000
Si       2.72218932       2.70679527      -0.00243534       0.00000000
Si       2.71111212      -2.73046464      -0.00096042       0.00000000
Si       0.00397476       2.70677898      -2.73601874       0.00000000
