10
Lattice="16.28999089631971 0.0 0.0 0.0 16.28999089631971 0.0 0.0 0.0 34.3005442915855" Properties=species:S:1:pos:R:3:initial_magmoms:R:1 pbc="T T T"
Si      -2.16024948       0.66430620      -0.63538364       0.00000000
Si      -0.26611344      -0.53651115       2.29244386       0.00000000
Si       1.34993601       1.92243177      -0.31426176       0.00000000
Si       0.80726724      -1.68741594      -1.53189746       0.00000000
Si      -1.06267815       1.57972275       2.93671134       0.00000000
Si       3.07416735       1.37875302       1.20895766       0.00000000
Si      -2.77949754       1.81602549       1.34434198       0.00000000
Si       2.41377075       1.32898707      -2.30064169       0.00000000
Si      -1.36153449       1.45697760      -3.04115656       0.00000000
Si      -2.04727833      -2.04784848       2.64539666       0.00000000
