10
Lattice="16.28999089631971 0.0 0.0 0.0 16.28999089631971 0.0 0.0 0.0 34.3005442915855" Properties=species:S:1:pos:R:3:initial_magmoms:R:1 pbc="T T T"
Si      -1.97325657      -0.42793830       1.20786004       0.00000000
Si       1.75663215       0.64163052       1.45105104       0.00000000
Si       0.84279573      -1.75125645      -1.36183527       0.00000000
Si      -0.47341998       1.97250723      -1.28253237       0.00000000
Si       2.79241551       2.24220447       0.01934552       0.00000000
Si       0.63110718       1.07035074       3.45701659       0.00000000
Si      -1.71678681      -2.59634907       2.03151947       0.00000000
Si      -1.74977406       0.95850360       3.13918757       0.00000000
Si      -3.81370077       0.05724306      -0.19904617       0.00000000
Si       1.35676152       3.32063505      -1.40556849       0.00000000
