10
Lattice="16.28999089631971 0.0 0.0 0.0 16.28999089631971 0.0 0.0 0.0 34.3005442915855" Properties=species:S:1:pos:R:3:initial_magmoms:R:1 pbc="T T T"
Si      -1.94921253       0.10845882      -1.32722600       0.00000000
Si      -0.24806412      -2.11478409       1.10674198       0.00000000
Si       1.57286466      -0.94944636      -1.63990994       0.00000000
Si       0.65485800       1.82855250       1.53635654       0.00000000
Si       1.98382878      -2.28296205       1.80630197       0.00000000
Si       0.19979685      -2.75612139      -2.44648769       0.00000000
Si       3.12564375      -2.08808478      -0.29947822       0.00000000
Si      -3.77851437      -0.22006161       0.12481975       0.00000000
Si       0.39868146       3.77515863       0.09827111       0.00000000
Si      -1.71227448      -1.52676396      -3.05353906       0.00000000
