10
Lattice="16.28999089631971 0.0 0.0 0.0 16.28999089631971 0.0 0.0 0.0 34.3005442915855" Properties=species:S:1:pos:R:3:initial_magmoms:R:1 pbc="T T T"
Si       1.91839185      -0.09021402       1.29988845       0.00000000
Si      -1.41618744       1.35361755       1.32894103       0.00000000
Si       0.73448352       0.78205032      -2.13675360       0.00000000
Si      -0.51754959      -2.33307009       0.41767796       0.00000000
Si       0.78185484      -0.83101806       3.30386457       0.00000000
Si       3.37154130      -1.05270867      -0.38083916       0.00000000
Si       3.11536476       0.89389746      -1.81892458       0.00000000
Si      -3.58381629       0.85815720       0.57522045       0.00000000
Si      -1.06183107      -3.10132278      -1.79237594       0.00000000
Si      -0.79633665       0.95676057       3.56533777       0.00000000
