10
Lattice="16.28999089631971 0.0 0.0 0.0 16.28999089631971 0.0 0.0 0.0 34.3005442915855" Properties=species:S:1:pos:R:3:initial_magmoms:R:1 pbc="T T T"
Si       1.56309066      -0.41518323       1.79018071       0.00000000
Si      -1.98812934      -1.15880544       0.77382071       0.00000000
Si      -0.45333441       2.39534676      -0.15078528       0.00000000
Si       0.26642295      -1.23323445      -2.11517855       0.00000000
Si      -2.10766536       2.18263194      -1.83562895       0.00000000
Si       3.55319109      -0.83719197       0.24751287       0.00000000
Si       0.07078005      -1.45331235       3.45957682       0.00000000
Si      -1.15681806      -2.93856939       2.06966170       0.00000000
Si      -3.32446320      -1.44428769      -1.09772093       0.00000000
Si      -2.00668365      -0.90041346      -3.08924595       0.00000000
