10
Lattice="16.28999089631971 0.0 0.0 0.0 16.28999089631971 0.0 0.0 0.0 34.3005442915855" Properties=species:S:1:pos:R:3:initial_magmoms:R:1 pbc="T T T"
Si       1.34469063       1.34731332       1.35377464       0.00000000
Si       1.35335691      -1.35128808      -1.35614138       0.00000000
Si      -1.36256076       1.35913986      -1.35315723       0.00000000
Si      -1.35694071      -1.36102950       1.37661881       0.00000000
Si      -2.55042756       0.14253750       2.73265729       0.00000000
Si      -0.04134402       2.66435982       2.70854399       0.00000000
Si       2.67628410       0.02041137       2.74335907       0.00000000
Si       2.70798444      -2.71339272       0.00559099       0.00000000
Si       2.71016730       0.00350235      -2.71283156       0.00000000
Si      -0.00452862      -2.71150308      -2.71235136       0.00000000
