10
Lattice="16.28999089631971 0.0 0.0 0.0 16.28999089631971 0.0 0.0 0.0 34.3005442915855" Properties=species:S:1:pos:R:3:initial_magmoms:R:1 pbc="T T T"
Si      -1.64603934      -1.40089113      -0.77296320       0.00000000
Si       0.48321027       1.15570775      -1.95856217       0.00000000
Si      -0.76628160       1.52718817       1.59507910       0.00000000
Si       1.95434388      -1.28474343       0.35302140       0.00000000
Si       2.56041333       1.94221665      -1.35476935       0.00000000
Si      -3.53331729      -0.62097480       0.32266540       0.00000000
Si       1.12523175       2.64387419       2.20497742       0.00000000
Si       0.20849571      -0.39325689      -3.72017051       0.00000000
Si      -2.06277012      -0.89917542      -3.01807228       0.00000000
Si       3.72562074       0.03476286      -0.58990109       0.00000000
