10
Lattice="16.28999089631971 0.0 0.0 0.0 16.28999089631971 0.0 0.0 0.0 34.3005442915855" Properties=species:S:1:pos:R:3:initial_magmoms:R:1 pbc="T T T"
Si      -1.35596331      -1.35739988       1.35758200       0.00000000
Si       1.35677781       1.35676403       1.35741050       0.00000000
Si      -1.35731538       1.35670865      -1.35710179       0.00000000
Si       1.35767376      -1.35775826      -1.35689599       0.00000000
Si      -2.71358820      -0.00054901      -2.71351758       0.00000000
Si       0.00024435       2.71432539      -2.71296877       0.00000000
Si      -0.00006516      -2.71360754      -2.71379198       0.00000000
Si       2.71495218       2.71429281       0.00027440       0.00000000
Si      -2.71463076       2.71474893       0.00048021       0.00000000
Si       2.71538010       0.00074720      -2.71434079       0.00000000
