10
Lattice="16.28999089631971 0.0 0.0 0.0 16.28999089631971 0.0 0.0 0.0 34.3005442915855" Properties=species:S:1:pos:R:3:initial_magmoms:R:1 pbc="T T T"
Si      -1.35604981      -1.35723393      -1.35823371       0.00000000
Si      -1.35788620       1.36068741       1.35449495       0.00000000
Si       1.35926041       1.35783666      -1.35782211       0.00000000
Si       1.36160617      -1.35922131       1.35847382       0.00000000
Si      -0.02141158       2.71107954       2.70456513       0.00000000
Si      -2.71235083       2.71373481      -0.00092612       0.00000000
Si      -0.00888945      -2.71389282       2.71276296       0.00000000
Si      -2.71324678       0.00070047      -2.71543841       0.00000000
Si      -2.71422418      -2.71476271      -0.00109762       0.00000000
Si       0.00158665      -2.71438967      -2.71540411       0.00000000
