10
Lattice="16.28999089631971 0.0 0.0 0.0 16.28999089631971 0.0 0.0 0.0 34.3005442915855" Properties=species:S:1:pos:R:3:initial_magmoms:R:1 pbc="T T T"
Si      -0.98575677      -0.95514786       1.89959951       0.00000000
Si      -1.51257537       1.53894888      -1.01622279       0.00000000
Si       0.44942481      -1.65680540      -1.66014727       0.00000000
Si       1.38914604       0.90665253       1.77820981       0.00000000
Si       2.53312758       1.20738222      -1.88227772       0.00000000
Si       2.52465678      -2.16649670       0.80798407       0.00000000
Si       0.85103847       3.09444840       1.24610517       0.00000000
Si       3.46798529      -0.25979292      -0.32520364       0.00000000
Si       1.30779378      -0.25221807      -3.29655855       0.00000000
Si      -1.38085443       3.26262636       0.54654518       0.00000000
