10
Lattice="16.28999089631971 0.0 0.0 0.0 16.28999089631971 0.0 0.0 0.0 34.3005442915855" Properties=species:S:1:pos:R:3:initial_magmoms:R:1 pbc="T T T"
Si      -0.76598838      -1.81629169       1.40882502       0.00000000
Si       1.89466776       0.82779590       1.32432216       0.00000000
Si       0.90782119      -2.03114050      -1.32770621       0.00000000
Si      -1.62153918       2.05575076      -0.01629277       0.00000000
Si       0.98711766      -0.53733121      -3.18172027       0.00000000
Si      -2.05728039      -0.47758901       2.78138265       0.00000000
Si       0.66503925       2.24461702       2.75360263       0.00000000
Si       3.00820004       1.97511526      -0.46305761       0.00000000
Si      -3.24363222       0.97314342       1.32917569       0.00000000
Si      -2.27851488      -2.98736350       0.11924835       0.00000000
