10
Lattice="16.28999089631971 0.0 0.0 0.0 16.28999089631971 0.0 0.0 0.0 34.3005442915855" Properties=species:S:1:pos:R:3:initial_magmoms:R:1 pbc="T T T"
Si       1.34576577       1.35294966       1.37536341       0.00000000
Si      -1.30696299       1.38508983      -1.38352695       0.00000000
Si      -1.36617714      -1.36290285       1.37646103       0.00000000
Si       1.50798159      -1.18376172      -1.54822110       0.00000000
Si      -2.53456110      -0.10016721      -2.77344207       0.00000000
Si       2.70008379      -2.69329086       0.00152981       0.00000000
Si       2.70586674       2.72629440      -0.01688617       0.00000000
Si      -2.72031597       2.71803537       0.01149069       0.00000000
Si      -2.71696023      -2.72272689       0.01174451       0.00000000
Si       2.70307482      -0.00211770       2.73757599       0.00000000
