10
Lattice="16.28999089631971 0.0 0.0 0.0 16.28999089631971 0.0 0.0 0.0 34.3005442915855" Properties=species:S:1:pos:R:3:initial_magmoms:R:1 pbc="T T T"
Si       1.35825387       1.35610992      -1.35662159       0.00000000
Si      -1.35751086      -1.35790182      -1.35603848       0.00000000
Si      -1.35754344       1.35710361       1.35741050       0.00000000
Si       1.35719697      -1.35793440       1.35720470       0.00000000
Si       2.71355629       0.00162900      -2.71252286       0.00000000
Si       0.00089595       2.71303434       2.71451229       0.00000000
Si      -2.71406061      -0.00004887       2.71434079       0.00000000
Si       2.71324678      -0.00070047       2.71543841       0.00000000
Si      -2.71099809      -0.00467523      -2.71773654       0.00000000
Si       2.71483017       2.71433754       0.00013720       0.00000000
