10
Lattice="16.28999089631971 0.0 0.0 0.0 16.28999089631971 0.0 0.0 0.0 34.3005442915855" Properties=species:S:1:pos:R:3:initial_magmoms:R:1 pbc="T T T"
Si       1.34188875      -1.37037996       1.34074042       0.00000000
Si      -1.34154666      -1.36655181      -1.37490379       0.00000000
Si       1.37345877       1.34895861      -1.37586420       0.00000000
Si      -1.42728093       1.36508571       1.50826438       0.00000000
Si       2.53522640      -0.01762578       2.81761979       0.00000000
Si      -2.69304651      -2.70297038      -0.01540095       0.00000000
Si      -2.70422145       2.69912268       0.00284695       0.00000000
Si       2.70993339       2.69935074      -0.02579402       0.00000000
Si      -2.69596242      -0.01107720      -2.73145677       0.00000000
Si       0.01899414       2.70200601      -2.73128527       0.00000000
