10
Lattice="16.28999089631971 0.0 0.0 0.0 16.28999089631971 0.0 0.0 0.0 34.3005442915855" Properties=species:S:1:pos:R:3:initial_magmoms:R:1 pbc="T T T"
Si      -0.73678041       1.97679150      -1.24222921       0.00000000
Si       1.83014633      -0.80993880      -1.41623596       0.00000000
Si      -1.67961303      -1.81799658       0.16618623       0.00000000
Si      -1.35915615       0.03562623       2.90278808       0.00000000
Si      -2.13236100       0.57277269      -2.72559137       0.00000000
Si      -1.55401713       3.10063860       0.72693184       0.00000000
Si       0.63680868      -2.16269298      -2.89311533       0.00000000
Si      -0.64790217      -3.42510282      -1.32667719       0.00000000
Si      -3.48970896      -0.71527761      -1.18398685       0.00000000
Si       2.77302131      -2.67848325      -0.27382140       0.00000000
