10
Lattice="16.28999089631971 0.0 0.0 0.0 16.28999089631971 0.0 0.0 0.0 34.3005442915855" Properties=species:S:1:pos:R:3:initial_magmoms:R:1 pbc="T T T"
Si       0.81723672      -1.12384710      -1.96916105       0.00000000
Si      -0.83021985       2.05491834       0.98298555       0.00000000
Si       2.07528084       0.81591723       0.97406740       0.00000000
Si      -1.39100310      -1.51477452       1.45245736       0.00000000
Si      -1.65151278       1.51982442      -2.16186161       0.00000000
Si       1.55401713      -3.10063860      -0.72693184       0.00000000
Si       1.03263939       3.49114248       0.58489321       0.00000000
Si      -1.41799563       1.37859012       3.17938783       0.00000000
Si       0.19486098      -3.06501237       2.17585624       0.00000000
Si      -2.76851808       2.71909422      -0.30884227       0.00000000
