10
Lattice="16.28999089631971 0.0 0.0 0.0 16.28999089631971 0.0 0.0 0.0 34.3005442915855" Properties=species:S:1:pos:R:3:initial_magmoms:R:1 pbc="T T T"
Si      -0.57958191      -1.08234018       1.99046170       0.00000000
Si      -1.91207133       1.22935743      -0.60705137       0.00000000
Si       0.69667443      -1.66229676      -1.54976806       0.00000000
Si       1.37306781       1.80667503       0.80657775       0.00000000
Si      -1.18565136       2.03263362      -2.71615872       0.00000000
Si      -0.44786097       0.64133730       3.55322967       0.00000000
Si       2.24078724      -2.87350713      -0.28987406       0.00000000
Si       2.92584690       0.66803661       2.14700947       0.00000000
Si      -0.19979685       2.75612139       2.44648769       0.00000000
Si       2.34952299       2.61760752      -1.22943510       0.00000000
