10
Lattice="16.28999089631971 0.0 0.0 0.0 16.28999089631971 0.0 0.0 0.0 34.3005442915855" Properties=species:S:1:pos:R:3:initial_magmoms:R:1 pbc="T T T"
Si      -0.44724195      -1.40458896      -1.84530171       0.00000000
Si       1.82949327      -0.89059059       1.30976702       0.00000000
Si      -1.99181088      -0.48725019       1.28990699       0.00000000
Si       0.31711743       2.16485955      -1.09607451       0.00000000
Si       3.77076752      -0.12440673       0.05223976       0.00000000
Si       0.09086562      -3.59238483      -1.31319707       0.00000000
Si      -1.77621273       2.70692559      -2.11524715       0.00000000
Si       1.29495726      -0.09120771       3.65259840       0.00000000
Si      -2.67913485      -1.23641100      -2.54486170       0.00000000
Si      -1.93065822      -2.90175399       1.85624359       0.00000000
