10
Lattice="16.28999089631971 0.0 0.0 0.0 16.28999089631971 0.0 0.0 0.0 34.3005442915855" Properties=species:S:1:pos:R:3:initial_magmoms:R:1 pbc="T T T"
Si       0.53810757      -2.18779587       0.53210464       0.00000000
Si      -2.23189290       0.16817796      -0.69955999       0.00000000
Si       0.44724195       1.40458896       1.84530171       0.00000000
Si       1.14181497       0.19487727      -2.10578019       0.00000000
Si      -0.85103847      -3.09444840      -1.24610517       0.00000000
Si       2.85971994      -1.96454142       0.26936232       0.00000000
Si      -1.98382878       2.28296205      -1.80630197       0.00000000
Si      -1.54456893       0.91733877       3.13520870       0.00000000
Si      -2.36361384      -1.55549952      -2.26232796       0.00000000
Si      -0.41096412       1.33351569      -3.44621191       0.00000000
