10
Lattice="16.28999089631971 0.0 0.0 0.0 16.28999089631971 0.0 0.0 0.0 34.3005442915855" Properties=species:S:1:pos:R:3:initial_magmoms:R:1 pbc="T T T"
Si      -2.13972408       0.98727174      -0.13685925       0.00000000
Si       1.38923956       1.61600058       1.03536251       0.00000000
Si       1.59863448      -0.26904564      -1.73499110       0.00000000
Si      -0.41902767      -2.07604647       1.18326654       0.00000000
Si      -3.51126063      -0.35056080       1.24898642       0.00000000
Si       2.33051975      -2.52358164      -1.50315359       0.00000000
Si      -2.84330547       0.94237650      -2.33408474       0.00000000
Si       1.67193134      -2.79567351       2.04668032       0.00000000
Si      -1.91506869       3.34077668       0.08557991       0.00000000
Si      -2.13338727      -1.51718544       2.86468016       0.00000000
