10
Lattice="16.28999089631971 0.0 0.0 0.0 16.28999089631971 0.0 0.0 0.0 34.3005442915855" Properties=species:S:1:pos:R:3:initial_magmoms:R:1 pbc="T T T"
Si      -2.02514578      -1.18832292      -0.30057584       0.00000000
Si       1.64718127       0.24778719      -1.71396486       0.00000000
Si      -0.82685613       2.14200468       0.68018017       0.00000000
Si       0.92639764      -1.40082597       1.72754788       0.00000000
Si       3.39439780       1.06023465      -0.33648853       0.00000000
Si       2.15091694      -1.87870941      -2.42769098       0.00000000
Si      -1.48487164      -3.27026637      -1.32317854       0.00000000
Si       1.05104872      -0.10301796       3.70274583       0.00000000
Si      -1.48752691       3.29802453      -1.35991444       0.00000000
Si       0.99918136       3.46261869       1.43767382       0.00000000
