10
Lattice="16.28999089631971 0.0 0.0 0.0 16.28999089631971 0.0 0.0 0.0 34.3005442915855" Properties=species:S:1:pos:R:3:initial_magmoms:R:1 pbc="T T T"
Si      -0.24277313      -1.38969990      -1.84067114       0.00000000
Si       1.23363844       1.94691564      -0.34701880       0.00000000
Si       0.84670207      -1.18278432       1.83291921       0.00000000
Si      -2.32161237      -0.22325445       0.26274232       0.00000000
Si      -0.49172033       0.06577902       3.34526535       0.00000000
Si       3.26487112       0.77416596      -0.74154388       0.00000000
Si       0.67546485      -3.32283909       0.73941725       0.00000000
Si      -2.85971994       1.96454142      -0.26936232       0.00000000
Si      -1.18610163      -3.29640368      -0.70748342       0.00000000
Si      -1.17763083       0.07747524      -3.39774522       0.00000000
