10
Lattice="16.28999089631971 0.0 0.0 0.0 16.28999089631971 0.0 0.0 0.0 34.3005442915855" Properties=species:S:1:pos:R:3:initial_magmoms:R:1 pbc="T T T"
Si      -1.26035567       1.34348517       1.46007208       0.00000000
Si       2.01896957       0.63961056      -1.15853583       0.00000000
Si       0.85772063      -1.91824524       1.21842462       0.00000000
Si      -1.38427549      -0.16638606      -2.04530830       0.00000000
Si       2.03527586      -1.33507953      -2.42374642       0.00000000
Si       1.03173041      -3.21736785      -0.85549035       0.00000000
Si      -2.01007590       3.04575759      -0.16203586       0.00000000
Si      -1.47553989       2.24637471      -2.50486725       0.00000000
Si      -0.04585309      -1.41494940      -3.55765444       0.00000000
Si       2.43941447      -0.49835997       2.91164590       0.00000000
