10
Lattice="16.28999089631971 0.0 0.0 0.0 16.28999089631971 0.0 0.0 0.0 34.3005442915855" Properties=species:S:1:pos:R:3:initial_magmoms:R:1 pbc="T T T"
Si       0.96602958       1.85666904       1.20404723       0.00000000
Si      -0.03530043       0.95446368      -2.27323554       0.00000000
Si      -1.91720431      -0.91264725       1.30535394       0.00000000
Si       1.52692686      -1.97063388       0.18498538       0.00000000
Si       1.95859557       0.34308369       2.75621976       0.00000000
Si      -2.54716142       1.60937055      -1.95108465       0.00000000
Si      -0.76321908      -2.41785954       2.73068299       0.00000000
Si       3.32050473      -0.98715771       1.39615440       0.00000000
Si      -3.25557442      -2.09779362      -0.24446012       0.00000000
Si       3.46426398       1.42351794      -1.38728629       0.00000000
