10
Lattice="16.28999089631971 0.0 0.0 0.0 16.28999089631971 0.0 0.0 0.0 34.3005442915855" Properties=species:S:1:pos:R:3:initial_magmoms:R:1 pbc="T T T"
Si       1.34482095       1.35702216       1.39777883       0.00000000
Si      -1.37073345      -1.35817875       1.39716142       0.00000000
Si      -1.40474371       1.30008861      -1.53429507       0.00000000
Si       1.71667278      -1.17424836      -1.50266309       0.00000000
Si       2.70923877      -2.68783371       0.04950943       0.00000000
Si      -2.72423276      -2.70135441       0.00542635       0.00000000
Si       2.69811270       2.72966643       0.00671262       0.00000000
Si      -2.72071705       2.71515204       0.01140151       0.00000000
Si       2.70278793       0.00060273       2.75961410       0.00000000
Si      -0.01330893      -2.71336014       2.75964840       0.00000000
