10
Lattice="16.28999089631971 0.0 0.0 0.0 16.28999089631971 0.0 0.0 0.0 34.3005442915855" Properties=species:S:1:pos:R:3:initial_magmoms:R:1 pbc="T T T"
Si       1.43231454       1.64483388       0.85106558       0.00000000
Si      -2.09095901       0.71962704      -0.86341378       0.00000000
Si       1.34034120      -0.99922860      -1.69509955       0.00000000
Si      -0.30722126      -1.25545401       2.23108015       0.00000000
Si       2.20463973      -1.91036088       1.90892926       0.00000000
Si       3.38296059       0.39006405       0.82825571       0.00000000
Si       0.71045577      -3.29354478      -1.28476190       0.00000000
Si       0.65858841       0.27209187      -3.54983391       0.00000000
Si      -2.74319432      -1.00427850      -2.43307617       0.00000000
Si      -1.67193134       2.79567351      -2.04668032       0.00000000
