10
Lattice="16.28999089631971 0.0 0.0 0.0 16.28999089631971 0.0 0.0 0.0 34.3005442915855" Properties=species:S:1:pos:R:3:initial_magmoms:R:1 pbc="T T T"
Si       1.35848826      -1.35588186       1.36049755       0.00000000
Si      -1.35755063       1.35905932       1.36166377       0.00000000
Si      -1.35061402      -1.35842310      -1.38603432       0.00000000
Si       1.35521397       1.35208629      -1.39163217       0.00000000
Si      -2.71450763      -2.71308321      -0.00003430       0.00000000
Si       2.71665072       2.71403847      -0.00010290       0.00000000
Si      -2.71742354       2.71376806       0.00229814       0.00000000
Si       2.71492398      -2.71655298       0.00034301       0.00000000
Si      -0.00034698      -2.71453302       2.71866266       0.00000000
Si       2.71505430       0.00026064       2.71897136       0.00000000
