10
Lattice="16.290000149 0.0 0.0 0.0 16.290000149 0.0 0.0 0.0 29.1751946751" Properties=species:S:1:pos:R:3:initial_magmoms:R:1 pbc="T T T"
Si      -1.07396713      -1.15984801       1.71264228       0.00000000
Si       0.85823866      -1.78368986      -1.29231525       0.00000000
Si       1.87175360       1.46108269       0.14441721       0.00000000
Si      -1.60231699       1.28910916      -1.22206138       0.00000000
H        0.47648250       2.30205395       1.76527433       0.00000000
H       -1.20301651      -0.36310410       2.99492126       0.00000000
H        2.59162499       1.53471349       1.46967126       0.00000000
Si       1.98314462      -0.34800327      -2.84887023       0.00000000
Si      -3.28507401      -1.09154404       0.87931119       0.00000000
Si      -0.29598930       2.64784178      -2.61319301       0.00000000
