10
Lattice="16.290000149 0.0 0.0 0.0 16.290000149 0.0 0.0 0.0 29.1751946751" Properties=species:S:1:pos:R:3:initial_magmoms:R:1 pbc="T T T"
Si      -1.36466218      -1.35736426      -1.33187681       0.00000000
Si      -1.43721784       1.33358086       1.28201640       0.00000000
Si       1.35459496       1.35120664      -1.36151881       0.00000000
Si       1.35878149      -1.32691825       1.38246660       0.00000000
Si      -0.08658135       2.67561623       2.59495852       0.00000000
Si      -0.09899433      -2.62420499       2.68680203       0.00000000
Si       0.00459378      -2.71427240      -2.66497898       0.00000000
Si      -2.70791930       0.02585223      -2.67431504       0.00000000
Si       2.73342944      -0.01329264      -2.67472350       0.00000000
Si       2.73150723       2.69141753      -0.02932107       0.00000000
