10
Lattice="16.290000149 0.0 0.0 0.0 16.290000149 0.0 0.0 0.0 29.1751946751" Properties=species:S:1:pos:R:3:initial_magmoms:R:1 pbc="T T T"
Si       1.72054982      -0.75899998      -1.37931568       0.00000000
Si       1.35829279       1.34532595       1.34202978       0.00000000
Si      -1.43752572       1.18596088      -1.44653533       0.00000000
Si      -1.19015230      -1.69249844       1.19236103       0.00000000
Si      -1.66669182      -0.66929095      -2.88204243       0.00000000
Si       0.64352017      -0.84652615      -3.47998805       0.00000000
Si       2.56870496      -2.60205059      -0.25254049       0.00000000
Si      -2.65276169      -0.41425470       2.53675400       0.00000000
Si      -0.08768907       2.53793315       2.69948886       0.00000000
Si       2.63645507      -0.15051960       2.68131213       0.00000000
