10
Lattice="16.290000149 0.0 0.0 0.0 16.290000149 0.0 0.0 0.0 29.1751946751" Properties=species:S:1:pos:R:3:initial_magmoms:R:1 pbc="T T T"
Si       1.74749348       0.32290201      -1.49260296       0.00000000
Si      -1.92006974       1.06305283      -0.77005009       0.00000000
Si       0.63459325       0.67332272       2.14621485       0.00000000
Si      -0.04085532      -2.14498740       0.97973221       0.00000000
Si       1.86900059      -1.98259239      -1.72860111       0.00000000
Si      -0.61631587      -1.10838953       2.98698561       0.00000000
H        1.33564969       2.98595540       0.00469721       0.00000000
Si      -0.75492748       2.49870520      -2.27869940       0.00000000
Si      -2.91877707       1.48186710       1.37102992       0.00000000
Si       2.15129000      -2.87391604       0.51173291       0.00000000
