10
Lattice="16.290000149 0.0 0.0 0.0 16.290000149 0.0 0.0 0.0 29.1751946751" Properties=species:S:1:pos:R:3:initial_magmoms:R:1 pbc="T T T"
Si      -1.48867795       1.79716169      -0.11815954       0.00000000
Si       1.11643516      -1.11122236      -1.76011032       0.00000000
Si      -1.65537353      -1.52899570       0.73390202       0.00000000
Si       1.86885398       0.83142532       1.25155750       0.00000000
H       -0.74468107       0.54817479       2.49935140       0.00000000
H       -1.39597156       0.97033015       2.45462583       0.00000000
Si       2.46529604      -2.52990218      -0.39383595       0.00000000
H        1.37132479       3.20204388      -0.96899574       0.00000000
H        0.80154946       3.33231501       1.36125623       0.00000000
Si       2.55800243       2.69239493      -0.16939118       0.00000000
