10
Lattice="16.290000149 0.0 0.0 0.0 16.290000149 0.0 0.0 0.0 29.1751946751" Properties=species:S:1:pos:R:3:initial_magmoms:R:1 pbc="T T T"
Si       1.07214265      -1.08889691      -0.03839456       0.00000000
Si      -1.83334178       1.87045691      -0.74075819       0.00000000
Si      -0.28929411       2.58845496       0.86122257       0.00000000
Si      -1.79927939      -0.55898484       2.36421190       0.00000000
Si      -0.22716405       1.13185202       2.79997261       0.00000000
H        1.30492675       2.15097072      -1.74715653       0.00000000
Si       2.94534280      -0.18159929       1.07875282       0.00000000
Si      -1.25911927       0.78836107      -2.79352489       0.00000000
Si       1.33587775      -1.82365900      -2.24619824       0.00000000
Si       0.24573465      -3.02270075       0.97909036       0.00000000
