10
Lattice="16.290000149 0.0 0.0 0.0 16.290000149 0.0 0.0 0.0 29.1751946751" Properties=species:S:1:pos:R:3:initial_magmoms:R:1 pbc="T T T"
Si      -1.35861859      -1.36567216      -1.32995125       0.00000000
Si      -1.34887717       1.34658028       1.36592426       0.00000000
Si       1.33569856      -1.37565793       1.35238697       0.00000000
Si       1.33877737       1.35550720      -1.38185392       0.00000000
Si      -2.70324407       2.67763619      -0.02068521       0.00000000
Si       2.67821775      -0.01239669       2.70334436       0.00000000
Si       0.00830790      -2.71204067      -2.67950823       0.00000000
Si      -2.68651424       0.00228060      -2.70538663       0.00000000
Si       2.69172704       2.70790301      -0.02269830       0.00000000
Si      -2.70365132      -0.02704140       2.70882930       0.00000000
