10
Lattice="16.290000149 0.0 0.0 0.0 16.290000149 0.0 0.0 0.0 29.1751946751" Properties=species:S:1:pos:R:3:initial_magmoms:R:1 pbc="T T T"
Si      -0.53186850      -0.25787070       1.38713463       0.00000000
H       -0.67450375      -0.91898407      -1.61642249       0.00000000
H       -1.59715306       0.83711053      -1.17126737       0.00000000
H        1.27477396       1.75422125       0.42890454       0.00000000
Si       0.45439326      -0.98191234      -2.62334598       0.00000000
Si       2.17500824       1.82850365      -0.79344859       0.00000000
Si       2.51898788      -0.29297565      -1.72116143       0.00000000
Si       1.15895206      -1.18600975       2.69928901       0.00000000
Si      -2.32979582      -1.85403008       1.26763303       0.00000000
Si      -1.38170152       1.61790652       2.50171459       0.00000000
