10
Lattice="16.290000149 0.0 0.0 0.0 16.290000149 0.0 0.0 0.0 29.1751946751" Properties=species:S:1:pos:R:3:initial_magmoms:R:1 pbc="T T T"
Si       0.84983302      -1.87577723      -1.11457996       0.00000000
Si       1.48905262       1.24950817       1.37744847       0.00000000
Si      -1.39134520       1.31848003      -1.43013887       0.00000000
Si      -1.31035132      -1.36761067       1.48726390       0.00000000
H        1.38170152      -1.61790652      -2.50171459       0.00000000
H        2.65647548       0.13631472      -2.07281006       0.00000000
Si       0.00689067       2.54629057       2.71898227       0.00000000
Si      -2.79938766       2.49782717       0.04139960       0.00000000
H       -0.21545154      -0.78079600      -3.67298196       0.00000000
Si       2.54065358      -2.80391628       0.19757442       0.00000000
