10
Lattice="16.290000149 0.0 0.0 0.0 16.290000149 0.0 0.0 0.0 29.1751946751" Properties=species:S:1:pos:R:3:initial_magmoms:R:1 pbc="T T T"
Si      -1.43378065       1.34720256      -1.26068934       0.00000000
Si      -1.38056122      -1.34351776       1.33438588       0.00000000
Si       1.34581465       1.38825173       1.33928731       0.00000000
Si       1.35485560      -1.32841693      -1.40110955       0.00000000
Si      -0.09852192       2.68710068      -2.58800898       0.00000000
Si      -0.01308087      -2.69276960       2.67580298       0.00000000
Si       2.69983946      -2.67388949      -0.03565209       0.00000000
Si       2.70443324       0.03417642       2.69170346       0.00000000
Si      -2.73207737       0.03251484       2.68239657       0.00000000
Si      -0.06716367      -2.78871771      -2.62523653       0.00000000
