10
Lattice="16.290000149 0.0 0.0 0.0 16.290000149 0.0 0.0 0.0 29.1751946751" Properties=species:S:1:pos:R:3:initial_magmoms:R:1 pbc="T T T"
Si       1.32019048       1.34099281       1.39391203       0.00000000
Si      -1.35721765       1.34004799      -1.38192394       0.00000000
Si       1.42045543      -1.38194587      -1.28219437       0.00000000
Si      -1.37432378      -1.36133902       1.36141086       0.00000000
Si       0.03420900      -2.65663838      -2.66085186       0.00000000
Si       2.67647960       2.65585646      -0.00476723       0.00000000
Si       0.13185126       2.54024633      -2.81603939       0.00000000
Si       2.62189181      -2.77995369       0.15895230       0.00000000
Si      -2.86387977      -0.04513959      -2.54860263       0.00000000
Si       2.67173921      -0.02689479       2.75029600       0.00000000
