10
Lattice="16.290000149 0.0 0.0 0.0 16.290000149 0.0 0.0 0.0 29.1751946751" Properties=species:S:1:pos:R:3:initial_magmoms:R:1 pbc="T T T"
Si      -0.69867811       1.33094188      -1.79809642       0.00000000
Si       1.95737384      -0.91230191      -0.98238716       0.00000000
Si      -1.49201740      -1.85701603      -0.07384242       0.00000000
Si      -0.57422251       1.08209584       2.05276670       0.00000000
H        2.56404602       1.36260964       1.04636836       0.00000000
H        1.25911927      -0.78836107       2.79352489       0.00000000
Si      -2.45265500       2.30122316      -0.52652474       0.00000000
Si       0.81907750      -2.04785925      -2.68977790       0.00000000
Si      -0.59282569      -0.40042449      -3.60439108       0.00000000
Si       2.59499702      -2.61202007       0.54732665       0.00000000
