10
Lattice="16.290000149 0.0 0.0 0.0 16.290000149 0.0 0.0 0.0 29.1751946751" Properties=species:S:1:pos:R:3:initial_magmoms:R:1 pbc="T T T"
Si       1.18667764      -0.50964894       0.79960456       0.00000000
H       -0.80871706       0.75131110      -1.65146189       0.00000000
H        0.63056962       1.66110761      -1.10509802       0.00000000
H       -0.56977534       0.13027113       2.33025197       0.00000000
Si      -1.88359643       0.58725451       1.72562524       0.00000000
Si      -1.65394001      -0.18094932      -2.46279488       0.00000000
Si       2.51905304      -1.57685572      -0.82306142       0.00000000
Si      -1.62178354       2.61425180       0.52716659       0.00000000
Si       0.49752918      -2.37061856       2.22055324       0.00000000
Si      -2.86000275      -1.40488219       0.85083620       0.00000000
