10
Lattice="16.290000149 0.0 0.0 0.0 16.290000149 0.0 0.0 0.0 29.1751946751" Properties=species:S:1:pos:R:3:initial_magmoms:R:1 pbc="T T T"
Si      -1.36125757       1.35123922       1.35285378       0.00000000
Si      -1.35809731      -1.34441371      -1.36315262       0.00000000
Si       1.32251995      -1.36604683       1.39092741       0.00000000
Si       1.35742942       1.37692855      -1.35539202       0.00000000
Si       2.69505020       0.01948284       2.69794695       0.00000000
Si       0.01239669       2.71555931       2.68338853       0.00000000
Si       2.69592986      -2.70528358       0.02713293       0.00000000
Si       0.00592956      -2.70625610      -2.70809992       0.00000000
Si      -2.72336223      -2.69192252      -0.01391657       0.00000000
Si      -2.71397918       2.70365132      -0.01563790       0.00000000
