10
Lattice="16.290000149 0.0 0.0 0.0 16.290000149 0.0 0.0 0.0 29.1751946751" Properties=species:S:1:pos:R:3:initial_magmoms:R:1 pbc="T T T"
Si      -1.36005211      -1.35413884      -1.35329140       0.00000000
Si      -1.36938628       1.35327547       1.35072399       0.00000000
Si       1.34732962      -1.36047565       1.36621602       0.00000000
Si       1.35544204       1.34408791      -1.37511445       0.00000000
Si       2.68965821       2.69513165       0.01928480       0.00000000
Si       0.01956429      -2.71267598      -2.68881512       0.00000000
Si      -2.69143382      -2.71246421       0.02920437       0.00000000
Si       2.71112843      -0.00521280       2.71446011       0.00000000
Si      -0.02057427       2.69169446      -2.73415337       0.00000000
Si      -0.02940345       2.71498916       2.71682330       0.00000000
