10
Lattice="16.290000149 0.0 0.0 0.0 16.290000149 0.0 0.0 0.0 29.1751946751" Properties=species:S:1:pos:R:3:initial_magmoms:R:1 pbc="T T T"
Si       1.36748035      -1.34925184       1.34141710       0.00000000
Si       1.38056122       1.34351776      -1.33438588       0.00000000
Si      -1.35151615       1.37603260       1.34801069       0.00000000
Si      -1.37995849      -1.34451145      -1.35597552       0.00000000
Si      -0.05321943       2.69072032      -2.59507522       0.00000000
Si      -0.00731421      -2.69066819       2.68519739       0.00000000
Si      -2.72741844       0.02031363       2.68096699       0.00000000
Si       2.72383463       0.01405827       2.69853046       0.00000000
Si       2.72398124      -2.70081686      -0.02427376       0.00000000
Si      -0.04328253      -2.78510133      -2.64487727       0.00000000
