10
Lattice="16.290000149 0.0 0.0 0.0 16.290000149 0.0 0.0 0.0 29.1751946751" Properties=species:S:1:pos:R:3:initial_magmoms:R:1 pbc="T T T"
Si       0.92879065      -1.03824316       1.83687026       0.00000000
Si      -0.76452229      -2.04936347      -0.87811501       0.00000000
Si      -1.29815011       1.50135157       1.32011921       0.00000000
Si       1.99065431       0.59992813      -1.17333880       0.00000000
H       -0.25694217       2.68289786      -1.43719926       0.00000000
Si      -0.16309548      -1.52935408      -3.06327874       0.00000000
Si       2.26590644      -2.58250259       0.68334141       0.00000000
Si      -1.00664056      -2.07010064       2.74165139       0.00000000
Si       2.00296955       0.72236377       2.89598817       0.00000000
Si       0.29683638       2.31650318       2.88040862       0.00000000
