10
Lattice="16.290000149 0.0 0.0 0.0 16.290000149 0.0 0.0 0.0 29.1751946751" Properties=species:S:1:pos:R:3:initial_magmoms:R:1 pbc="T T T"
Si       1.36115983       1.36363591      -1.34121287       0.00000000
Si      -1.35544204       1.38297214       1.33639897       0.00000000
Si       1.38670255      -1.34434855       1.34494730       0.00000000
Si      -1.35635428      -1.36331011      -1.35711336       0.00000000
Si      -2.70905960       0.03093471       2.67556958       0.00000000
Si       0.04911435      -2.78901093       2.60429458       0.00000000
Si       0.00254124       2.71771122      -2.69362902       0.00000000
Si       2.69254154       2.71868374       0.04160383       0.00000000
Si       2.71324613       0.00426798      -2.70147715       0.00000000
Si      -2.72383463      -0.01405827      -2.69853046       0.00000000
