10
Lattice="16.290000149 0.0 0.0 0.0 16.290000149 0.0 0.0 0.0 29.1751946751" Properties=species:S:1:pos:R:3:initial_magmoms:R:1 pbc="T T T"
Si      -1.41528173       1.22171743      -1.38019093       0.00000000
Si      -1.31159588      -1.49325544       1.26862499       0.00000000
Si       1.50689017      -1.33328764      -1.24782308       0.00000000
Si       0.65880019       1.88454125       1.29249030       0.00000000
Si       0.04779486       2.60439635      -2.59723418       0.00000000
Si       0.25329321      -2.56642436       2.63449090       0.00000000
Si      -2.75990070       2.52104042       0.04020342       0.00000000
Si       0.07206696      -2.73887031      -2.56840909       0.00000000
Si      -2.70464501      -0.18687888      -2.69963911       0.00000000
Si      -0.99499321       3.53983332       1.19352804       0.00000000
