10
Lattice="16.290000149 0.0 0.0 0.0 16.290000149 0.0 0.0 0.0 29.1751946751" Properties=species:S:1:pos:R:3:initial_magmoms:R:1 pbc="T T T"
Si      -1.36726858      -1.34974054       1.35078526       0.00000000
Si       1.30381903       1.29481066       1.47594684       0.00000000
Si      -1.37070577       1.41281542      -1.30363814       0.00000000
Si       1.36459702      -1.34703640      -1.39002589       0.00000000
Si       2.66049911       2.63471204       0.16120170       0.00000000
Si       2.71249679      -2.70977636      -0.01349353       0.00000000
Si      -0.01689273      -2.66890475       2.75901355       0.00000000
Si      -2.71046054      -2.71896392      -0.01230026       0.00000000
Si      -2.73087191       0.02293632       2.70007966       0.00000000
Si      -2.78370039       0.11779299      -2.64765096       0.00000000
