10
Lattice="16.290000149 0.0 0.0 0.0 16.290000149 0.0 0.0 0.0 29.1751946751" Properties=species:S:1:pos:R:3:initial_magmoms:R:1 pbc="T T T"
Si       1.35078310       1.28915803      -1.36691622       0.00000000
Si      -1.54258156       1.26488593       1.19128155       0.00000000
Si       1.03319326      -0.82196083       1.95400866       0.00000000
Si      -1.40266675      -1.40230837      -1.30100946       0.00000000
Si      -0.79166143      -2.12216348       2.58871502       0.00000000
Si      -2.44545482      -0.46687140       2.48975276       0.00000000
Si       2.60367959       2.60803065       0.10628523       0.00000000
Si      -0.06988410       2.64938771      -2.67343979       0.00000000
Si       2.71702541      -0.08210160      -2.71060899       0.00000000
Si      -0.06157620      -2.73248463      -2.70716631       0.00000000
