10
Lattice="16.290000149 0.0 0.0 0.0 16.290000149 0.0 0.0 0.0 29.1751946751" Properties=species:S:1:pos:R:3:initial_magmoms:R:1 pbc="T T T"
Si      -2.05126940       0.62141301      -0.88666334       0.00000000
Si       1.03907395      -1.62140399      -1.31320469       0.00000000
Si      -0.50697738      -1.25002456       1.93437376       0.00000000
Si       1.49201740       1.85701603       0.07384242       0.00000000
Si       2.31109490      -0.19084322      -2.61593548       0.00000000
Si      -3.30217851      -1.16029924      -0.04589258       0.00000000
Si       2.57453678      -2.60877348       0.19118505       0.00000000
Si       3.44939124       0.94471412      -0.90854474       0.00000000
Si      -2.10193130       0.28717641       3.02085801       0.00000000
Si       0.79333930       3.18795792      -1.72425401       0.00000000
