10
Lattice="16.290000149 0.0 0.0 0.0 16.290000149 0.0 0.0 0.0 29.1751946751" Properties=species:S:1:pos:R:3:initial_magmoms:R:1 pbc="T T T"
Si       1.36726858       1.34974054      -1.35078526       0.00000000
Si      -1.34319196      -1.36922338      -1.36308552       0.00000000
Si       1.35037585      -1.31916421       1.40822830       0.00000000
Si      -1.36360333       1.37267686       1.34929440       0.00000000
Si       2.67108761       2.64455120       0.12516159       0.00000000
Si      -2.69948108      -2.68408703       0.03559374       0.00000000
Si       0.08539218      -2.74348038      -2.65613598       0.00000000
Si      -0.00343719       2.76255597      -2.65442340       0.00000000
Si       2.77065210      -2.64877031       0.10683956       0.00000000
Si      -2.71598285      -0.01708821      -2.72423964       0.00000000
