10
Lattice="16.290000149 0.0 0.0 0.0 16.290000149 0.0 0.0 0.0 29.1751946751" Properties=species:S:1:pos:R:3:initial_magmoms:R:1 pbc="T T T"
Si       1.34251919       1.36326124       1.35095739       0.00000000
Si      -1.33569856       1.37565793      -1.35238697       0.00000000
Si       1.36685319      -1.35132067      -1.34815657       0.00000000
Si      -1.35669637      -1.34745994       1.37100075       0.00000000
Si      -2.69431715       0.00998577      -2.68233822       0.00000000
Si       2.67480173       0.00519651       2.71285548       0.00000000
Si      -0.00316026      -2.72083727      -2.67233113       0.00000000
Si      -2.68457573       2.72223821       0.01353729       0.00000000
Si       2.69500133      -2.71272485       0.02514902       0.00000000
Si       2.69467553       2.72728811      -0.01000709       0.00000000
