10
Lattice="16.290000149 0.0 0.0 0.0 16.290000149 0.0 0.0 0.0 29.1751946751" Properties=species:S:1:pos:R:3:initial_magmoms:R:1 pbc="T T T"
Si      -0.84815515       1.84305062      -1.12677519       0.00000000
Si       1.71587459      -0.44725824      -1.52382042       0.00000000
Si       1.37714032       1.02791530       1.63273142       0.00000000
Si      -1.39113343      -1.74058652       0.91703472       0.00000000
H       -1.99589969      -1.16141185      -2.17772406       0.00000000
H        1.11764062      -0.52970193      -2.92644708       0.00000000
Si       2.19157517      -2.47858868      -0.46473168       0.00000000
Si       0.32386149      -3.37505997       0.81605937       0.00000000
Si       2.64059273       2.51107094       0.30488078       0.00000000
H       -0.56185840      -3.19485999      -1.69680015       0.00000000
