10
Lattice="16.290000149 0.0 0.0 0.0 16.290000149 0.0 0.0 0.0 29.1751946751" Properties=species:S:1:pos:R:3:initial_magmoms:R:1 pbc="T T T"
Si      -1.36531378       1.35653347      -1.33065145       0.00000000
Si       1.34840476       1.36177885       1.34871090       0.00000000
Si      -1.37593486      -1.33113736       1.35492522       0.00000000
Si       1.37521810      -1.36366849      -1.33301464       0.00000000
Si       2.66742236      -0.08047260       2.62416289       0.00000000
Si       0.00322542       2.70106121      -2.67276876       0.00000000
Si       0.01141929      -2.71893134      -2.68125874       0.00000000
Si      -2.70529661      -0.00518022      -2.69675077       0.00000000
Si      -2.68442912       2.71834490       0.05934235       0.00000000
Si      -0.06667497      -2.75884185       2.65225860       0.00000000
