10
Lattice="16.290000149 0.0 0.0 0.0 16.290000149 0.0 0.0 0.0 29.1751946751" Properties=species:S:1:pos:R:3:initial_magmoms:R:1 pbc="T T T"
Si      -1.28936329      -1.40859631      -1.31944818       0.00000000
Si       1.41528173      -1.22171743       1.38019093       0.00000000
Si      -1.34461897       1.29932299       1.42039435       0.00000000
Si       1.46307659       1.38267892      -1.21704325       0.00000000
Si       2.07408191       0.66282382       2.67268123       0.00000000
Si       0.42028852       2.31811589       2.57371897       0.00000000
Si      -2.61260000      -0.03751587      -2.65645983       0.00000000
Si       0.11870686       2.72534960      -2.61637311       0.00000000
Si      -2.60838089      -2.73505845       0.12180644       0.00000000
Si       0.11528433      -2.72510526      -2.63367400       0.00000000
