10
Lattice="16.290000149 0.0 0.0 0.0 16.290000149 0.0 0.0 0.0 29.1751946751" Properties=species:S:1:pos:R:3:initial_magmoms:R:1 pbc="T T T"
Si      -1.35418771      -1.34754139       1.36052685       0.00000000
Si       1.32403492      -1.37011933      -1.37426837       0.00000000
Si      -1.35861859       1.32595714      -1.38882679       0.00000000
Si       1.34236117       1.34372953       1.39425338       0.00000000
Si       2.62765847      -2.75333583      -0.00382195       0.00000000
Si       2.70392825       2.68495040       0.00571834       0.00000000
Si      -2.73201221       2.68273496      -0.06494398       0.00000000
Si      -2.73533538       0.00358380       2.68957367       0.00000000
Si       2.68073129      -0.02265939      -2.74526912       0.00000000
Si      -0.00384444       2.69957882      -2.73173183       0.00000000
