10
Lattice="16.290000149 0.0 0.0 0.0 16.290000149 0.0 0.0 0.0 29.1751946751" Properties=species:S:1:pos:R:3:initial_magmoms:R:1 pbc="T T T"
Si      -1.34769502      -1.40530573       1.31308799       0.00000000
Si       1.34325336      -1.35953083      -1.36907519       0.00000000
Si      -1.43702938       1.35627283      -1.28224981       0.00000000
Si       1.38361183       1.35755974       1.35317470       0.00000000
Si      -2.58593051      -0.04067613       2.73021472       0.00000000
Si      -0.05742927       2.68475492      -2.66935526       0.00000000
Si      -0.01359288       2.74958065       2.63761265       0.00000000
Si       2.71237574      -2.69619050      -0.00501813       0.00000000
Si       2.70242255      -0.00408879      -2.71854464       0.00000000
Si      -0.02445831      -2.77638618       2.65009963       0.00000000
