10
Lattice="16.290000149 0.0 0.0 0.0 16.290000149 0.0 0.0 0.0 29.1751946751" Properties=species:S:1:pos:R:3:initial_magmoms:R:1 pbc="T T T"
Si      -1.37021707       1.36115495      -1.31279623       0.00000000
Si      -1.38733786      -1.35925390       1.30418955       0.00000000
Si       1.32476797      -1.35120664      -1.38407124       0.00000000
Si       1.35516511       1.37207739       1.33756598       0.00000000
Si      -0.00547344      -2.70565499       2.63991749       0.00000000
Si      -0.02334357       2.69120576      -2.65856336       0.00000000
Si       2.67555107       0.04351171      -2.69382158       0.00000000
Si       2.73729018       0.01192428       2.65885219       0.00000000
Si      -2.70586676       0.01063737       2.69281212       0.00000000
Si      -0.00599472       2.72877051       2.67612391       0.00000000
