10
Lattice="16.290000149 0.0 0.0 0.0 16.290000149 0.0 0.0 0.0 29.1751946751" Properties=species:S:1:pos:R:3:initial_magmoms:R:1 pbc="T T T"
Si       1.37253025       1.38552967       1.30701955       0.00000000
Si       1.37340991      -1.33923675      -1.36379448       0.00000000
Si      -1.32251995       1.36604683      -1.39092741       0.00000000
Si      -1.36992385      -1.35941354       1.37394744       0.00000000
Si      -2.67457367      -2.67494834      -0.06899934       0.00000000
Si       2.67615380       0.00231318       2.67746597       0.00000000
Si      -2.68377752       2.71728605      -0.03807363       0.00000000
Si       2.70524774      -2.70739802       0.00644772       0.00000000
Si      -2.68061726       0.02163312      -2.75408003       0.00000000
Si      -2.70215264       0.03258000       2.73321976       0.00000000
