10
Lattice="16.290000149 0.0 0.0 0.0 16.290000149 0.0 0.0 0.0 29.1751946751" Properties=species:S:1:pos:R:3:initial_magmoms:R:1 pbc="T T T"
Si      -1.37788966      -1.36423864      -1.30448130       0.00000000
Si      -1.38652336       1.31373964       1.35778439       0.00000000
Si       1.32789565      -1.36795276       1.37543538       0.00000000
Si       1.32520780       1.38627901      -1.38334186       0.00000000
Si      -2.69369813       0.02867040      -2.64537325       0.00000000
Si      -0.01672983       2.67535559       2.68470141       0.00000000
Si       2.68651424      -0.00228060       2.70538663       0.00000000
Si      -0.04911435      -2.72240111      -2.66982206       0.00000000
Si       2.75196747       0.02725317      -2.65287128       0.00000000
Si       2.69482214      -2.71432127       0.02587840       0.00000000
