10
Lattice="16.290000149 0.0 0.0 0.0 16.290000149 0.0 0.0 0.0 29.1751946751" Properties=species:S:1:pos:R:3:initial_magmoms:R:1 pbc="T T T"
H        1.19286784       0.37950813       0.88812210       0.00000000
Si       0.83644264       1.47846412      -1.64305944       0.00000000
Si      -0.76624740      -2.10380465       1.16476130       0.00000000
Si       0.54485163      -2.38237994      -0.74656406       0.00000000
Si      -2.20555199       1.41568246       1.03364797       0.00000000
H        2.62690913      -1.65394001       1.36904601       0.00000000
Si      -3.42133986      -0.18565713      -0.38164072       0.00000000
H       -1.89337369      -1.48758652      -2.51910301       0.00000000
Si      -0.26140563      -1.20387988       3.26455841       0.00000000
Si       1.26358273       3.29644443      -0.16160140       0.00000000
