10
Lattice="16.290000149 0.0 0.0 0.0 16.290000149 0.0 0.0 0.0 29.1751946751" Properties=species:S:1:pos:R:3:initial_magmoms:R:1 pbc="T T T"
Si      -1.36379881      -1.36142047       1.32963032       0.00000000
Si       1.33667596      -1.44058987      -1.28890175       0.00000000
Si       1.37995849       1.34451145       1.35597552       0.00000000
Si      -1.38407986       1.35741313      -1.33893721       0.00000000
Si       2.69335604      -0.10068849      -2.60364689       0.00000000
Si       0.01855431      -2.69967656       2.68079194       0.00000000
Si      -2.71432127       0.00296478       2.68505152       0.00000000
Si      -0.03329676       2.75213149      -2.64868755       0.00000000
Si      -2.69801498      -2.71246421      -0.06476893       0.00000000
Si      -2.70884783       2.70861977       0.04513403       0.00000000
