10
Lattice="16.290000149 0.0 0.0 0.0 16.290000149 0.0 0.0 0.0 29.1751946751" Properties=species:S:1:pos:R:3:initial_magmoms:R:1 pbc="T T T"
Si      -1.34498386       1.34547256      -1.36545746       0.00000000
Si       1.35668008       1.34869798       1.36709127       0.00000000
Si      -1.35641944      -1.37044513       1.34576420       0.00000000
Si       1.34467435      -1.30196197      -1.42412878       0.00000000
Si      -2.76700314      -0.11482821      -2.58958444       0.00000000
Si       0.11670156       2.78197055      -2.57949274       0.00000000
Si      -2.69983946       2.67388949       0.03565209       0.00000000
Si       2.69208542      -2.68767083      -0.06258079       0.00000000
Si       0.00545715      -2.71112843       2.70906270       0.00000000
Si      -2.71292033      -0.01888011       2.71145507       0.00000000
