10
Lattice="16.290000149 0.0 0.0 0.0 16.290000149 0.0 0.0 0.0 29.1751946751" Properties=species:S:1:pos:R:3:initial_magmoms:R:1 pbc="T T T"
Si      -1.46491247       1.20862027       1.34016257       0.00000000
Si       1.17392094       1.53442027      -1.32035261       0.00000000
Si      -0.22916609      -1.85525183      -1.43550710       0.00000000
Si       1.43752572      -1.18596088       1.44653533       0.00000000
H       -2.94868714      -1.26320806      -1.42748393       0.00000000
Si       2.08104589      -2.03248703      -2.03345272       0.00000000
Si      -2.61749514      -0.43034922       2.52202053       0.00000000
Si       2.53048699       0.17694198      -2.64522738       0.00000000
Si       3.15807554      -1.94496086       0.06721965       0.00000000
Si      -0.00679456       2.59436171       2.68840666       0.00000000
