10
Lattice="16.290000149 0.0 0.0 0.0 16.290000149 0.0 0.0 0.0 29.1751946751" Properties=species:S:1:pos:R:3:initial_magmoms:R:1 pbc="T T T"
Si      -1.54090369      -1.31103550      -1.19151495       0.00000000
Si      -1.40804245       1.17934714       1.47153847       0.00000000
Si       1.39134520      -1.31848003       1.43013887       0.00000000
Si       0.76791061       1.50880099      -1.70975393       0.00000000
H        1.17589366      -2.09927603      -2.24284309       0.00000000
Si      -1.30559464       2.24065857      -2.56537487       0.00000000
Si      -0.18433764      -2.66851379      -2.51638972       0.00000000
Si      -2.58030507       0.24021234      -2.67320639       0.00000000
Si       0.04201191       2.61412963       2.75122086       0.00000000
H       -0.59839687       3.78967305       0.04338351       0.00000000
