10
Lattice="16.290000149 0.0 0.0 0.0 16.290000149 0.0 0.0 0.0 29.1751946751" Properties=species:S:1:pos:R:3:initial_magmoms:R:1 pbc="T T T"
Si       2.07350525      -0.73185758       0.85562093       0.00000000
Si       0.71840530       0.59463225      -2.16865057       0.00000000
Si      -1.27471043      -2.00044623      -0.10783152       0.00000000
Si      -0.57135547       1.50923430       1.77828647       0.00000000
H       -1.65538656       0.86051763      -1.85282909       0.00000000
H        0.70719778       1.54901449       2.60875838       0.00000000
H        0.16959519       1.93158514      -2.61993248       0.00000000
Si      -0.04691520       3.49257440       0.07579716       0.00000000
Si       3.11782458      -1.40007827      -1.21832695       0.00000000
Si       1.30559464      -2.24065857       2.56537487       0.00000000
