10
Lattice="16.2900001489832 0.0 0.0 0.0 16.2900001489832 0.0 0.0 0.0 29.53925988841934" Properties=species:S:1:pos:R:3:initial_magmoms:R:1 pbc="T T T"
Si      -1.32548473       1.16470243      -1.60002355       0.00000000
Si       1.44164872      -1.47451869      -1.20608798       0.00000000
Si      -1.90746128      -0.96725134       1.09558161       0.00000000
Si       1.00940171       1.88330321       1.15938641       0.00000000
Si      -0.82567495       3.39631842       0.85643176       0.00000000
Si      -2.70089831       2.45285048      -0.19038053       0.00000000
Si       2.71221986       2.69622308      -0.31344109       0.00000000
Si       0.07267099      -2.78940189      -2.67850193       0.00000000
Si       0.04833243       2.54324369      -2.91853796       0.00000000
Si       2.70878267      -0.17080065      -2.78218473       0.00000000
