10
Lattice="16.2900001489832 0.0 0.0 0.0 16.2900001489832 0.0 0.0 0.0 29.53925988841934" Properties=species:S:1:pos:R:3:initial_magmoms:R:1 pbc="T T T"
Si      -1.90998623       1.19738506       0.59424129       0.00000000
Si       1.97570009       0.99926608       0.77171316       0.00000000
Si       0.24138522       0.30196285      -2.31472594       0.00000000
Si       0.36602001      -2.17326032       0.89601437       0.00000000
H        2.90442558      -0.20965393       0.83950577       0.00000000
Si      -2.12644775       0.69560907       2.97218125       0.00000000
Si      -1.83956456       3.20182071      -0.77611451       0.00000000
Si       0.99334792      -1.65535235      -3.24391290       0.00000000
Si      -1.44109486      -3.48910137       0.08108527       0.00000000
H       -2.56313378      -0.74388351       2.67480952       0.00000000
