10
Lattice="16.2900001489832 0.0 0.0 0.0 16.2900001489832 0.0 0.0 0.0 29.53925988841934" Properties=species:S:1:pos:R:3:initial_magmoms:R:1 pbc="T T T"
Si      -2.13452759       0.72544258       0.53259286       0.00000000
Si       1.24232428       0.72829333      -1.84472678       0.00000000
Si       0.64720171      -2.06400981       0.92301325       0.00000000
Si      -1.27744552       2.74033641       1.36958778       0.00000000
Si      -0.63692272       0.69514318      -3.24917089       0.00000000
Si       2.65704563      -1.22980379       1.76107160       0.00000000
Si       2.89281081      -0.96361867      -1.68704621       0.00000000
Si       2.00878508      -2.96096817      -0.72081702       0.00000000
Si      -3.18461358      -1.01699937       1.82458100       0.00000000
Si       0.92167192       3.67966668       1.54762090       0.00000000
