10
Lattice="16.2900001489832 0.0 0.0 0.0 16.2900001489832 0.0 0.0 0.0 29.53925988841934" Properties=species:S:1:pos:R:3:initial_magmoms:R:1 pbc="T T T"
Si       1.06008805      -1.88703362       0.92623303       0.00000000
Si      -2.31034556      -0.63654805       0.43523146       0.00000000
Si       0.76046608       1.87564691       1.47711069       0.00000000
Si       0.53932932      -0.44908272      -2.45320599       0.00000000
H       -0.76159009       0.99616609      -2.56025627       0.00000000
H        1.78725737      -1.70696396      -2.12472942       0.00000000
Si       1.98377993      -2.88906411      -1.03145188       0.00000000
Si      -0.61568056      -3.49245549       1.36400486       0.00000000
Si      -2.42264882      -2.97466969      -0.05727662       0.00000000
Si       2.20584521      -1.32154255       2.95368967       0.00000000
