10
Lattice="16.2900001489832 0.0 0.0 0.0 16.2900001489832 0.0 0.0 0.0 29.53925988841934" Properties=species:S:1:pos:R:3:initial_magmoms:R:1 pbc="T T T"
Si      -1.33188670      -1.29894832      -1.41324681       0.00000000
Si       1.48708153      -1.28076868       1.26868167       0.00000000
Si       1.41395572       1.35071794      -1.34935339       0.00000000
Si      -1.26609139       1.23579199       1.58758752       0.00000000
Si       2.27183600       0.54336925       2.62137300       0.00000000
Si       0.55732978       2.35711415       2.59694403       0.00000000
Si      -2.63024858      -2.64717389       0.00735528       0.00000000
Si      -2.66341502       2.72438849       0.35275784       0.00000000
Si       0.05509278       2.79823107      -2.60926190       0.00000000
Si      -2.71845893       0.08171064      -2.71861624       0.00000000
