10
Lattice="16.2900001489832 0.0 0.0 0.0 16.2900001489832 0.0 0.0 0.0 29.53925988841934" Properties=species:S:1:pos:R:3:initial_magmoms:R:1 pbc="T T T"
Si      -1.01582812      -2.03027159       0.38891390       0.00000000
Si       1.32517522      -0.95491981      -1.65904299       0.00000000
Si       1.07569387       0.91095310       1.85985088       0.00000000
Si      -1.36723600       1.74496853      -0.79693969       0.00000000
Si       2.36672525       2.46317834       0.42793526       0.00000000
Si      -1.93517057      -2.64725534      -1.69159526       0.00000000
Si      -1.75078406       3.05927832       1.20791942       0.00000000
Si       3.15252228      -2.01144035      -0.50314221       0.00000000
Si      -0.13532103      -2.07796871      -3.16025772       0.00000000
Si      -0.58288879       2.07168077       3.15015529       0.00000000
