10
Lattice="16.2900001489832 0.0 0.0 0.0 16.2900001489832 0.0 0.0 0.0 29.53925988841934" Properties=species:S:1:pos:R:3:initial_magmoms:R:1 pbc="T T T"
Si       1.35886294      -1.44751312       1.25990851       0.00000000
Si       1.42011334       1.33578001      -1.37869474       0.00000000
Si      -1.34674318      -1.35534430      -1.43355505       0.00000000
Si      -1.32015790       1.29505501       1.55249488       0.00000000
Si      -2.67107132       2.66122239       0.15980740       0.00000000
Si       2.80422579      -0.08086356       2.54203055       0.00000000
Si      -2.68503185       0.09070272      -2.70877672       0.00000000
Si      -0.05509278      -2.79823107       2.60926190       0.00000000
Si       0.12116502       2.80471123      -2.66367618       0.00000000
Si       2.74269846       2.73891103      -0.03973030       0.00000000
