10
Lattice="16.2900001489832 0.0 0.0 0.0 16.2900001489832 0.0 0.0 0.0 29.53925988841934" Properties=species:S:1:pos:R:3:initial_magmoms:R:1 pbc="T T T"
Si       1.31212693       1.35115777       1.43998279       0.00000000
Si      -1.31937598      -1.34020275       1.45008522       0.00000000
Si       1.48198276      -1.35189571      -1.28331542       0.00000000
Si      -1.51651756       1.23082354      -1.38251712       0.00000000
H       -2.72202644       0.00478926      -1.64692894       0.00000000
Si      -2.64196109      -2.74333377       0.11112079       0.00000000
Si       2.72820035       2.71902908       0.15238713       0.00000000
Si       0.05621679      -2.77861791       2.69569673       0.00000000
Si       2.69966027       0.08464284      -2.77760319       0.00000000
Si       2.75996586      -0.04525362       2.72346364       0.00000000
