10
Lattice="16.2900001489832 0.0 0.0 0.0 16.2900001489832 0.0 0.0 0.0 29.53925988841934" Properties=species:S:1:pos:R:3:initial_magmoms:R:1 pbc="T T T"
Si      -1.32258511      -1.40313102      -1.33896443       0.00000000
Si       1.37559277      -1.43841516       1.24561151       0.00000000
Si       1.31937598       1.34020275      -1.45008522       0.00000000
Si      -1.37624437       1.32774090       1.44671479       0.00000000
H       -1.40265046       1.34499201      -3.09701416       0.00000000
Si      -2.62153343       0.06580020      -2.62394587       0.00000000
Si       2.63150291       2.69136052      -0.01010243       0.00000000
Si       2.72554508      -0.10149159       2.59954349       0.00000000
Si       0.06152733      -2.81977459       2.58176085       0.00000000
Si      -2.71321355       2.70067840       0.01184524       0.00000000
