10
Lattice="16.2900001489832 0.0 0.0 0.0 16.2900001489832 0.0 0.0 0.0 29.53925988841934" Properties=species:S:1:pos:R:3:initial_magmoms:R:1 pbc="T T T"
Si      -1.31406544      -1.38135943       1.33614934       0.00000000
Si       1.34995231       1.33692357       1.35393198       0.00000000
Si       1.37907883      -1.42447906      -1.25370527       0.00000000
Si      -1.37559277       1.43841516      -1.24561151       0.00000000
Si      -2.69817788       0.03528414      -2.58457595       0.00000000
Si       2.71559189       0.01125639      -2.56955819       0.00000000
Si      -2.56153736      -0.03176550       2.79317334       0.00000000
Si       0.00118917      -2.76446190      -2.65669309       0.00000000
Si       2.70374906       2.73336428       0.02776690       0.00000000
Si       0.04523733       2.65277765       2.80097170       0.00000000
