10
Lattice="16.2900001489832 0.0 0.0 0.0 16.2900001489832 0.0 0.0 0.0 29.53925988841934" Properties=species:S:1:pos:R:3:initial_magmoms:R:1 pbc="T T T"
Si       1.77422537       0.82109746       1.38335308       0.00000000
Si      -1.52063893       1.56939490       0.99830883       0.00000000
Si       0.98414407      -0.03733668      -2.21878243       0.00000000
Si      -1.25946136      -2.10076656      -0.05151647       0.00000000
H        0.84448990      -1.95296088       2.27266204       0.00000000
H        1.53736876      -1.59682726       2.23266588       0.00000000
Si       2.20429766       3.02733363       0.47635010       0.00000000
Si      -0.64852120      -0.96663232      -3.61684606       0.00000000
Si      -1.48537108      -2.72110443      -2.33106115       0.00000000
Si       0.97308316       0.87531058       3.67004627       0.00000000
