10
Lattice="16.2900001489832 0.0 0.0 0.0 16.2900001489832 0.0 0.0 0.0 29.53925988841934" Properties=species:S:1:pos:R:3:initial_magmoms:R:1 pbc="T T T"
H       -0.01806561       0.71674372       1.32864637       0.00000000
Si       1.31828455      -1.88922299       0.57037357       0.00000000
Si      -2.29140029      -0.31845321      -0.65181331       0.00000000
Si       1.11648403       1.41097465      -1.60938750       0.00000000
H        0.58492504       2.86998852       0.84305048       0.00000000
H       -0.42375177      -2.37133206       2.41474588       0.00000000
Si      -3.07934760       1.84109582      -0.30384083       0.00000000
Si      -2.15273981      -0.86895748      -2.91236425       0.00000000
H       -1.22401432      -2.07787748      -2.84457165       0.00000000
Si      -2.40499046       2.29723211       1.90111723       0.00000000
