10
Lattice="16.2900001489832 0.0 0.0 0.0 16.2900001489832 0.0 0.0 0.0 29.53925988841934" Properties=species:S:1:pos:R:3:initial_magmoms:R:1 pbc="T T T"
Si       1.19027773      -0.68683202      -1.90439608       0.00000000
Si      -1.65048653       1.69191200      -0.15768057       0.00000000
Si      -0.88402573      -1.99734950       0.96622919       0.00000000
Si       1.45349155       0.42771024       1.88241888       0.00000000
H       -1.54673551      -1.02517532      -2.31971808       0.00000000
Si       1.62526960      -2.79062364      -0.81410200       0.00000000
Si      -0.23576517      -0.26618512       3.44811781       0.00000000
Si      -2.89281081       0.96361867       1.68704621       0.00000000
Si      -2.24560910      -1.10039114       2.61005946       0.00000000
H        2.97170328       2.05816007       0.54015491       0.00000000
