10
Lattice="16.2900001489832 0.0 0.0 0.0 16.2900001489832 0.0 0.0 0.0 29.53925988841934" Properties=species:S:1:pos:R:3:initial_magmoms:R:1 pbc="T T T"
Si       1.01465524       2.08251362      -0.62508028       0.00000000
Si      -0.14543712      -1.91671400      -1.43794163       0.00000000
Si      -1.81899029       1.18354996       1.06790332       0.00000000
Si       1.46987929      -1.02014497       1.64453922       0.00000000
H        1.37277460      -0.28626417      -2.78020560       0.00000000
Si      -1.83469385      -2.61060936       0.12775730       0.00000000
Si      -0.24785235       3.05805657       1.12494363       0.00000000
Si       3.30294414      -1.94211011       0.40894151       0.00000000
Si       2.28597572      -2.72156381      -1.66244001       0.00000000
Si       0.25220178      -2.45668352       3.13882699       0.00000000
