10
Lattice="16.2900001489832 0.0 0.0 0.0 16.2900001489832 0.0 0.0 0.0 29.53925988841934" Properties=species:S:1:pos:R:3:initial_magmoms:R:1 pbc="T T T"
H       -0.37144458      -0.91900036       1.04052043       0.00000000
Si       0.06483420       0.78832198      -1.28994994       0.00000000
H       -0.62222914      -0.05242122      -2.37551774       0.00000000
Si      -1.04853844      -1.39271356       2.31762079       0.00000000
Si       2.26093799       0.90994312      -2.01437075       0.00000000
Si       1.23435847      -2.56772756      -1.38423926       0.00000000
Si       2.93529513       1.36607941       0.19058730       0.00000000
Si      -0.66085273       2.97815412      -1.23172806       0.00000000
Si       2.93353581      -0.61854760       1.46180935       0.00000000
Si      -0.91460206      -2.10376718      -2.42242609       0.00000000
