10
Lattice="16.2900001489832 0.0 0.0 0.0 16.2900001489832 0.0 0.0 0.0 29.53925988841934" Properties=species:S:1:pos:R:3:initial_magmoms:R:1 pbc="T T T"
Si      -2.13658013      -1.02446182      -0.24027234       0.00000000
Si       1.74996956      -1.58188933       0.39089303       0.00000000
Si       0.00112401       1.25708302      -2.08074547       0.00000000
Si      -0.26639037       0.25762635       2.40532285       0.00000000
H        1.25195167       2.81870760       1.04350389       0.00000000
H        2.61296489      -1.67378123      -1.13525284       0.00000000
Si      -1.02617227      -1.99892963       2.87930982       0.00000000
Si      -1.97496704      -3.03982806       0.91285175       0.00000000
H        3.50098167       1.42351795       0.04844439       0.00000000
Si       3.58380003      -0.51368886       1.37422545       0.00000000
