10
Lattice="16.2900001489832 0.0 0.0 0.0 16.2900001489832 0.0 0.0 0.0 29.53925988841934" Properties=species:S:1:pos:R:3:initial_magmoms:R:1 pbc="T T T"
Si       1.71799229       1.61153713       0.28204085       0.00000000
Si      -0.59385196      -0.71754193       2.18758897       0.00000000
Si       0.76334941      -1.52036200      -1.67688471       0.00000000
Si      -1.82734706       1.05652054      -1.15590078       0.00000000
Si       0.63130267       3.44442279      -0.73957445       0.00000000
Si      -0.78851746       2.67887423      -2.42168760       0.00000000
Si       3.67991103       0.37698318      -0.36705484       0.00000000
Si      -3.15252228       2.01144035       0.50314221       0.00000000
Si      -2.79296940      -1.65687221       2.00955585       0.00000000
Si      -0.06252102      -0.71359975      -3.78362472       0.00000000
