10
Lattice="16.2900001489832 0.0 0.0 0.0 16.2900001489832 0.0 0.0 0.0 29.53925988841934" Properties=species:S:1:pos:R:3:initial_magmoms:R:1 pbc="T T T"
Si      -1.57511269       0.53711388       1.68169960       0.00000000
Si      -0.02684592      -2.31883265      -0.47767937       0.00000000
Si       1.67477492       1.13990905       1.35540894       0.00000000
Si      -0.20412999       0.71412103      -2.38656542       0.00000000
H        2.54396045      -1.15636195      -0.34295081       0.00000000
Si      -1.39321855       2.88453549       1.46715596       0.00000000
Si       1.95053204      -0.08957871      -3.01344760       0.00000000
Si       1.19075014      -2.34613469      -2.53946063       0.00000000
Si       0.89275717       3.37696590       1.47973968       0.00000000
Si      -2.09087039      -2.84555352      -1.42349693       0.00000000
