10
Lattice="16.2900001489832 0.0 0.0 0.0 16.2900001489832 0.0 0.0 0.0 29.53925988841934" Properties=species:S:1:pos:R:3:initial_magmoms:R:1 pbc="T T T"
Si      -2.08611371      -0.92470186      -0.20724745       0.00000000
Si       0.18189414       2.34742160      -0.21454364       0.00000000
Si       1.57511269      -0.53711388      -1.68169960       0.00000000
Si       0.78110551      -0.63415342       2.18487136       0.00000000
H       -2.25453602       0.60590656      -1.76538433       0.00000000
Si       3.24988761       0.60279517      -0.32629066       0.00000000
Si       3.06260148      -0.36830061       1.83344278       0.00000000
Si       2.46786986       2.83985202      -0.20195992       0.00000000
Si      -3.09555615      -1.00804150       1.93801176       0.00000000
Si      -0.68654206       3.43587054       1.65337145       0.00000000
