10
Lattice="16.2900001489832 0.0 0.0 0.0 16.2900001489832 0.0 0.0 0.0 29.53925988841934" Properties=species:S:1:pos:R:3:initial_magmoms:R:1 pbc="T T T"
Si      -1.62479719      -1.27764100       1.01021315       0.00000000
Si       1.07386939       0.75842983       1.93491014       0.00000000
Si      -0.84113416       1.94106755      -1.01597330       0.00000000
Si       1.09271692      -1.28744758      -1.63922215       0.00000000
H        2.52464051       1.01358010      -1.10722008       0.00000000
H        1.49447719      -0.27367200      -2.68925422       0.00000000
Si       2.70686045       2.15469461      -0.11573482       0.00000000
H       -2.68312592       0.75869047      -2.11146630       0.00000000
Si       0.74645668       3.41648544      -0.11139255       0.00000000
Si       0.15459210       2.94642120       2.21057051       0.00000000
