10
Lattice="16.2900001489832 0.0 0.0 0.0 16.2900001489832 0.0 0.0 0.0 29.53925988841934" Properties=species:S:1:pos:R:3:initial_magmoms:R:1 pbc="T T T"
Si       1.96040378      -1.26179083      -0.00434227       0.00000000
Si      -1.58759083      -1.47541789      -0.90458076       0.00000000
Si      -0.43499187       2.10379162      -1.09029408       0.00000000
Si      -0.59186458      -0.47006424       2.32196306       0.00000000
H        1.77818384      -2.40290534      -0.99582753       0.00000000
Si      -2.50929533       0.79327414       1.78033119       0.00000000
Si      -1.62526960       2.79062364       0.81410200       0.00000000
Si       0.32741271      -2.65805561       2.04630269       0.00000000
Si      -0.74645668      -3.41648544       0.11139255       0.00000000
Si      -3.54335196      -0.62035579       0.24783439       0.00000000
