10
Lattice="16.2900001489832 0.0 0.0 0.0 16.2900001489832 0.0 0.0 0.0 29.53925988841934" Properties=species:S:1:pos:R:3:initial_magmoms:R:1 pbc="T T T"
Si      -1.13110756      -1.35365014       1.54262877       0.00000000
Si      -1.82420634       1.02276766      -1.08385452       0.00000000
Si       1.56302551      -0.77644657      -1.59828073       0.00000000
Si       1.37122705       1.55880640       1.28897514       0.00000000
Si       1.89923483       1.41753952      -2.55617985       0.00000000
Si      -2.12739257       0.42101505       2.74000858       0.00000000
Si       2.81857728       2.03452328      -0.47567070       0.00000000
Si      -3.11764539       1.52591689       0.91748941       0.00000000
Si       0.67225573      -2.38024595       2.61608547       0.00000000
Si       3.33687621      -1.61841151      -0.19516589       0.00000000
