10
Lattice="16.2900001489832 0.0 0.0 0.0 16.2900001489832 0.0 0.0 0.0 29.53925988841934" Properties=species:S:1:pos:R:3:initial_magmoms:R:1 pbc="T T T"
Si       0.55323936      -1.52557480      -1.62899566       0.00000000
Si       1.55013035       1.09340762       1.38151869       0.00000000
Si      -1.31362561      -1.52950069       1.27238590       0.00000000
Si      -0.81335971       1.76739986      -1.44821539       0.00000000
Si      -1.54802242      -1.21844314      -2.71196400       0.00000000
Si       0.12502575       2.52069833       2.65673445       0.00000000
Si       2.88280875       2.29231253      -0.14662698       0.00000000
Si       1.07944546       3.31890834      -1.22008368       0.00000000
Si      -2.57427614      -0.16263936       2.69112406       0.00000000
Si      -2.64642455       2.68936499      -0.21261768       0.00000000
