10
Lattice="16.2900001489832 0.0 0.0 0.0 16.2900001489832 0.0 0.0 0.0 29.53925988841934" Properties=species:S:1:pos:R:3:initial_magmoms:R:1 pbc="T T T"
Si       1.39422853      -1.36803421      -1.32699217       0.00000000
Si       1.34519563       1.36554184       1.38991080       0.00000000
Si      -1.35584929      -1.37472940       1.38341216       0.00000000
Si      -1.29735190       1.39745395      -1.44222482       0.00000000
Si      -2.70920621       0.10451664       2.63239115       0.00000000
Si       0.00913869      -2.63871938      -2.72311507       0.00000000
Si       2.78280688      -0.01611081       2.65522499       0.00000000
Si      -2.75307519      -2.69421941       0.00076802       0.00000000
Si      -2.64104885       2.81285949      -0.15366323       0.00000000
Si       2.68864823      -0.04629618      -2.78082297       0.00000000
