10
Lattice="16.2900001489832 0.0 0.0 0.0 16.2900001489832 0.0 0.0 0.0 29.53925988841934" Properties=species:S:1:pos:R:3:initial_magmoms:R:1 pbc="T T T"
Si       1.75490868      -1.42775335       0.39603286       0.00000000
Si      -0.21043422       1.43537707       1.84254087       0.00000000
Si      -2.16733565      -0.90411130      -0.13449225       0.00000000
Si       0.22869531       1.45863919      -1.84963030       0.00000000
H       -3.01985652       0.33966279      -0.32723592       0.00000000
Si      -1.66039085       2.91680598       0.67535610       0.00000000
Si      -1.84156823       2.49052925      -1.69124079       0.00000000
Si       1.98686851      -2.35271585      -1.77312361       0.00000000
Si       3.63897426      -0.04007340       0.66605123       0.00000000
Si       1.05159754      -2.65834883       2.35170910       0.00000000
