10
Lattice="16.2900001489832 0.0 0.0 0.0 16.2900001489832 0.0 0.0 0.0 29.53925988841934" Properties=species:S:1:pos:R:3:initial_magmoms:R:1 pbc="T T T"
H       -0.80103323      -0.96339061       0.89831843       0.00000000
Si       1.15671528       1.35366643       1.52632310       0.00000000
Si       1.42400160      -1.38173410      -1.30693501       0.00000000
Si      -1.35883541       1.44583525      -1.31414259       0.00000000
H       -2.21265948       2.27509400      -0.37054048       0.00000000
H       -3.05006323       0.43179903       1.89337794       0.00000000
Si      -0.71821487      -2.90059743       2.22409949       0.00000000
Si      -0.00444978      -2.49528593      -2.81837033       0.00000000
Si      -0.58649393       1.99712144       3.16203007       0.00000000
Si       2.68647661       2.68346801       0.13319252       0.00000000
