10
Lattice="16.2900001489832 0.0 0.0 0.0 16.2900001489832 0.0 0.0 0.0 29.53925988841934" Properties=species:S:1:pos:R:3:initial_magmoms:R:1 pbc="T T T"
Si      -1.22095995       1.22815198       1.50632502       0.00000000
Si      -0.62967204      -2.26657433       0.41567647       0.00000000
Si      -1.59697713       0.07962552      -1.77826345       0.00000000
Si       2.38638728       0.51836409      -0.04661295       0.00000000
H       -0.10407681       2.74965429      -2.11205708       0.00000000
Si       2.76993534      -0.79594570      -2.05147206       0.00000000
Si      -3.40219911       0.58929076       0.79439932       0.00000000
Si      -1.35454772       3.48615777       0.74376902       0.00000000
Si      -0.52467810       0.17919000      -3.84462329       0.00000000
Si      -0.27713851       1.26557011       3.67083792       0.00000000
