10
Lattice="16.2900001489832 0.0 0.0 0.0 16.2900001489832 0.0 0.0 0.0 29.53925988841934" Properties=species:S:1:pos:R:3:initial_magmoms:R:1 pbc="T T T"
Si      -1.33530760       1.30761460      -1.49577950       0.00000000
Si      -1.41043708      -1.37064061       1.36616123       0.00000000
Si       1.33573114      -1.36257706      -1.47808549       0.00000000
Si       1.33924978       1.39147552       1.45288850       0.00000000
Si      -2.69259041      -2.60868062      -0.21593199       0.00000000
Si       2.69200397      -2.67209759      -0.03645145       0.00000000
Si      -2.77153176       0.09042579       2.61685349       0.00000000
Si       2.66926313       0.16032618      -2.72851780       0.00000000
Si      -2.71438643       2.73209366      -0.24207423       0.00000000
Si      -0.11140731       2.82517473       2.63886024       0.00000000
