10
Lattice="16.2900001489832 0.0 0.0 0.0 16.2900001489832 0.0 0.0 0.0 29.53925988841934" Properties=species:S:1:pos:R:3:initial_magmoms:R:1 pbc="T T T"
Si       1.30788502      -1.27287455       1.47233419       0.00000000
Si      -1.55013035      -1.09340762      -1.38151869       0.00000000
Si       1.33267840       1.19890491      -1.52814567       0.00000000
Si      -1.42510460       1.42729072       1.27521576       0.00000000
Si      -0.47068489       2.22550072      -2.60160237       0.00000000
Si       2.64667868      -2.47709652      -0.03549437       0.00000000
Si       2.59502309       2.66200757      -0.13125770       0.00000000
Si      -2.36349006       0.67399224      -2.82973408       0.00000000
Si      -2.70694842       0.04598830       2.70158095       0.00000000
Si      -0.09322767      -2.57224641       2.86868455       0.00000000
