10
Lattice="16.2900001489832 0.0 0.0 0.0 16.2900001489832 0.0 0.0 0.0 29.53925988841934" Properties=species:S:1:pos:R:3:initial_magmoms:R:1 pbc="T T T"
Si      -1.35044427       1.36611199       1.36001706       0.00000000
Si      -1.35682995      -1.34571691      -1.40326549       0.00000000
Si       1.32504164       1.32827032      -1.46364374       0.00000000
Si       1.31000597      -1.34793235       1.49637029       0.00000000
Si      -2.63867377      -2.72701933       0.02309970       0.00000000
Si      -2.72426143      -0.01242927       2.67853147       0.00000000
Si       0.02601024       2.85606057       2.54400968       0.00000000
Si       2.72891386      -2.67958448       0.15460849       0.00000000
Si      -2.71465033       2.72802116       0.05349560       0.00000000
Si       2.69322247       2.75439468      -0.16299764       0.00000000
