10
Lattice="16.2900001489832 0.0 0.0 0.0 16.2900001489832 0.0 0.0 0.0 29.53925988841934" Properties=species:S:1:pos:R:3:initial_magmoms:R:1 pbc="T T T"
Si      -1.22883290      -1.13736781       0.26529505       0.00000000
Si       1.33732756       1.22510575       0.31324613       0.00000000
Si      -0.00146610       2.42932772       1.82107469       0.00000000
Si      -2.17265433      -1.17478594      -1.89921785       0.00000000
Si       2.67561623      -0.22094127       1.58846779       0.00000000
Si      -0.08164548      -2.89093746       1.40932695       0.00000000
Si      -2.76569994      -0.13686858       1.74146048       0.00000000
Si       1.24880770      -1.58211739       2.91266850       0.00000000
Si      -2.30624211       1.08321985      -2.66177385       0.00000000
Si      -1.40257879       1.12995586       3.21742505       0.00000000
