10
Lattice="16.2900001489832 0.0 0.0 0.0 16.2900001489832 0.0 0.0 0.0 29.53925988841934" Properties=species:S:1:pos:R:3:initial_magmoms:R:1 pbc="T T T"
Si      -1.37882797       1.42537501      -1.28681878       0.00000000
Si      -1.36053267      -1.35588187       1.40925901       0.00000000
Si       1.32760243       1.35597961       1.47979876       0.00000000
Si       1.27255852      -1.28669824      -1.59157532       0.00000000
Si       2.65913075      -2.66735720      -0.28620589       0.00000000
Si      -2.71920827      -2.67387320      -0.07071699       0.00000000
Si       0.02228472       2.72474687      -2.68316913       0.00000000
Si       2.72492606      -0.13261689       2.71462844       0.00000000
Si       2.72595233       2.72487719       0.07027390       0.00000000
Si      -2.67998065       2.80409547       0.12303102       0.00000000
