10
Lattice="16.2900001489832 0.0 0.0 0.0 16.2900001489832 0.0 0.0 0.0 29.53925988841934" Properties=species:S:1:pos:R:3:initial_magmoms:R:1 pbc="T T T"
Si       1.21635802       0.86734477       0.23761381       0.00000000
Si      -0.53747226      -1.91936927      -1.35623604       0.00000000
Si      -2.28068147      -1.27591426       0.27947094       0.00000000
Si       0.23982138       2.90562289      -0.42805342       0.00000000
Si       0.99228907      -0.58956769      -2.74936661       0.00000000
Si       2.02782809      -0.07076376       2.22764421       0.00000000
Si      -2.85676104       0.96565492       0.01739862       0.00000000
Si       2.76066633       0.17381430      -1.32799651       0.00000000
Si      -1.54836614       2.02544975      -1.78366913       0.00000000
Si      -1.43329195      -1.73610677       2.46256994       0.00000000
