10
Lattice="16.2900001489832 0.0 0.0 0.0 16.2900001489832 0.0 0.0 0.0 29.53925988841934" Properties=species:S:1:pos:R:3:initial_magmoms:R:1 pbc="T T T"
H       -1.21635802      -0.86734477      -0.23761381       0.00000000
Si       1.54430830      -0.69353047      -1.56561031       0.00000000
Si       0.81147007      -0.93810853       1.99003040       0.00000000
Si      -0.97653664       2.03827812      -0.66566722       0.00000000
Si      -0.22406895      -1.45691245      -2.98698042       0.00000000
Si       1.34392501      -3.05347908       0.94608342       0.00000000
Si      -1.57529188       2.71202113       1.57272928       0.00000000
Si      -1.21179682      -0.95879683       3.20598449       0.00000000
Si      -2.76472416       1.15810498      -2.02128294       0.00000000
Si       3.24591285       0.89564050      -1.33496777       0.00000000
