10
Lattice="16.290000149 0.0 0.0 0.0 16.290000149 0.0 0.0 0.0 29.1751946751" Properties=species:S:1:pos:R:3:initial_magmoms:R:1 pbc="T T T"
Si       1.22262967      -1.53212338       1.24260072       0.00000000
Si      -1.38738673      -1.35213517      -1.29219855       0.00000000
Si      -1.05901291       1.46391715       1.47856969       0.00000000
Si       1.37577196       1.31983210      -1.35606305       0.00000000
Si       0.75730582       2.21685725       2.86086124       0.00000000
Si      -2.37312722       0.10743255       2.86523752       0.00000000
Si      -0.01946655       2.60278364      -2.71562712       0.00000000
Si      -0.02616174      -2.69954624      -2.62559247       0.00000000
Si      -2.50509251       2.81748585       0.19631988       0.00000000
Si      -2.74204686       0.00630423      -2.59539614       0.00000000
