10
Lattice="16.290000149 0.0 0.0 0.0 16.290000149 0.0 0.0 0.0 29.1751946751" Properties=species:S:1:pos:R:3:initial_magmoms:R:1 pbc="T T T"
Si       1.37090125       1.34757397       1.33692412       0.00000000
Si       1.44200710      -1.33053137      -1.28262908       0.00000000
Si      -1.34729704      -1.38866876       1.33704082       0.00000000
Si      -1.37775934       1.33946155      -1.35795944       0.00000000
Si       0.12101841      -2.67098092      -2.61902513       0.00000000
Si       0.03130938       2.74607049      -2.61473638       0.00000000
Si       0.00516393       2.69449634       2.68718131       0.00000000
Si      -2.71127504      -0.02625948       2.68079194       0.00000000
Si       2.69490359      -0.03433932       2.69993087       0.00000000
Si      -2.79417486      -0.09081675      -2.59600590       0.00000000
