10
Lattice="16.290000149 0.0 0.0 0.0 16.290000149 0.0 0.0 0.0 29.1751946751" Properties=species:S:1:pos:R:3:initial_magmoms:R:1 pbc="T T T"
Si       1.08278002      -1.42069978      -1.49715429       0.00000000
Si      -1.54611649       1.32401863      -1.18395858       0.00000000
Si      -1.05524992      -1.76300156       1.18010745       0.00000000
Si       2.12654549       0.96984145       0.68091987       0.00000000
Si       0.22001274       0.80780482       3.39009927       0.00000000
Si       2.37776987      -2.71432127      -0.07037057       0.00000000
Si      -0.20258244       2.70265763      -2.49669646       0.00000000
Si      -1.40043502      -0.87931792       3.31360191       0.00000000
Si       2.49758282      -0.09409104      -2.73552460       0.00000000
Si       0.54618742      -3.53978445       1.09258187       0.00000000
