10
Lattice="16.290000149 0.0 0.0 0.0 16.290000149 0.0 0.0 0.0 29.1751946751" Properties=species:S:1:pos:R:3:initial_magmoms:R:1 pbc="T T T"
Si       1.13329531      -0.06941169      -1.00254721       0.00000000
H        0.69550156       0.86815927       1.60510251       0.00000000
H       -0.93761983       1.75909196       0.47523475       0.00000000
Si      -2.28841922       1.17872812       0.18380373       0.00000000
Si      -2.74308941      -1.02978865       0.79374035       0.00000000
Si       0.13839984       0.60571108       2.97834975       0.00000000
Si       1.35819505      -2.20566602      -1.90829113       0.00000000
Si       3.19129248       0.62719759      -0.09309805       0.00000000
Si       0.90881911       1.44666604      -2.83533294       0.00000000
Si      -1.67257577      -0.95718412       2.89216622       0.00000000
