10
Lattice="16.290000149 0.0 0.0 0.0 16.290000149 0.0 0.0 0.0 29.1751946751" Properties=species:S:1:pos:R:3:initial_magmoms:R:1 pbc="T T T"
Si       1.35555607       1.36772470       1.33750762       0.00000000
Si      -1.32881115       1.36179514      -1.37263456       0.00000000
Si       1.38429163      -1.35490284      -1.33435670       0.00000000
Si      -1.34709505      -1.35373811       1.37631063       0.00000000
Si       2.71052570       0.00086337       2.67413999       0.00000000
Si      -2.69873174      -0.00692325      -2.69733427       0.00000000
Si       0.05887206      -2.69224832       2.70882930       0.00000000
Si       0.02728575      -2.71816571      -2.68359276       0.00000000
Si      -2.69452892       2.71274114      -0.02392366       0.00000000
Si      -0.02252907       2.71339274       2.69482521       0.00000000
