10
Lattice="16.290000149 0.0 0.0 0.0 16.290000149 0.0 0.0 0.0 29.1751946751" Properties=species:S:1:pos:R:3:initial_magmoms:R:1 pbc="T T T"
Si      -0.92367396       0.81691744       1.99995959       0.00000000
Si       1.37031644       1.38426557      -1.32528322       0.00000000
Si      -1.87077457      -0.89821921      -1.11860614       0.00000000
Si       1.83352260      -1.19533740       0.91884358       0.00000000
H        2.64712665       1.42082033      -0.49638676       0.00000000
H       -2.92050218       0.21241346      -1.10028412       0.00000000
Si       0.52339282      -2.60227214       2.28485537       0.00000000
Si       1.96506435      -0.13398036      -3.08819436       0.00000000
Si      -0.64693536      -1.01023902       3.57078125       0.00000000
Si       0.39877106       2.80156074       2.49202843       0.00000000
