10
Lattice="16.290000149 0.0 0.0 0.0 16.290000149 0.0 0.0 0.0 29.1751946751" Properties=species:S:1:pos:R:3:initial_magmoms:R:1 pbc="T T T"
Si      -1.43205391       1.32077692      -1.28400032       0.00000000
Si      -1.37929060      -1.31779585       1.36379448       0.00000000
Si       1.33488406       1.40393737       1.33925814       0.00000000
Si       1.34573320      -1.28052433      -1.45992674       0.00000000
Si      -0.07097553       2.65745288      -2.59869002       0.00000000
Si       2.68666085      -2.61508259      -0.03778188       0.00000000
Si      -0.02316438      -2.68745906       2.70319849       0.00000000
Si      -2.75211408      -2.64388331      -0.00099196       0.00000000
Si       2.69868287       0.06543693       2.70351941       0.00000000
Si      -2.74831851       0.06030558       2.68776481       0.00000000
