10
Lattice="16.290000149 0.0 0.0 0.0 16.290000149 0.0 0.0 0.0 29.1751946751" Properties=species:S:1:pos:R:3:initial_magmoms:R:1 pbc="T T T"
Si      -2.24355656       0.50860638      -0.27424683       0.00000000
Si       0.92367396      -0.81691744      -1.99995959       0.00000000
Si       0.27673860      -1.82715646       1.57082166       0.00000000
Si       1.32244502       1.98464330       0.49206883       0.00000000
Si       2.95407750       0.79390945       1.69301642       0.00000000
Si       1.61633943      -0.60823277       3.05442407       0.00000000
Si       2.75719656      -2.01225485      -1.08111601       0.00000000
Si      -0.94710061      -1.71513665      -3.11856573       0.00000000
Si      -2.97891975       1.14091903       1.90519885       0.00000000
Si       1.44706678      -3.41918958       0.28489578       0.00000000
