10
Lattice="16.290000149 0.0 0.0 0.0 16.290000149 0.0 0.0 0.0 29.1751946751" Properties=species:S:1:pos:R:3:initial_magmoms:R:1 pbc="T T T"
Si      -1.30179907      -1.35340579       1.43484774       0.00000000
Si       1.36189614      -1.45805275      -1.29025840       0.00000000
Si       1.35758744       1.28267461       1.47087911       0.00000000
Si      -1.29736819       1.53241660      -1.31768308       0.00000000
Si       2.70251102       0.01236411      -2.52167801       0.00000000
Si      -2.52835463       2.73293341       0.27948378       0.00000000
Si      -2.64662003      -2.68695407       0.04608514       0.00000000
Si       2.73965223       2.70392679       0.24239043       0.00000000
Si      -2.64412766      -0.04896774       2.85988095       0.00000000
Si       0.04867452      -2.73595440       2.79668748       0.00000000
