10
Lattice="16.290000149 0.0 0.0 0.0 16.290000149 0.0 0.0 0.0 29.1751946751" Properties=species:S:1:pos:R:3:initial_magmoms:R:1 pbc="T T T"
Si       1.37692855       1.34052040       1.33219774       0.00000000
Si       1.37855755      -1.36563958      -1.31241696       0.00000000
Si      -1.35361756      -1.35086455       1.36224819       0.00000000
Si      -1.35102745       1.37676565      -1.34121287       0.00000000
Si      -0.05727564       2.66243762       2.61433084       0.00000000
Si      -0.00008145      -2.70112637      -2.65672240       0.00000000
Si      -2.71560818       0.02168199      -2.68834831       0.00000000
Si       2.73481410      -0.00988803      -2.66990959       0.00000000
Si       0.00941562      -2.67704975       2.74249747       0.00000000
Si       0.00965997       2.73787662      -2.68534327       0.00000000
