10
Lattice="16.290000149 0.0 0.0 0.0 16.290000149 0.0 0.0 0.0 29.1751946751" Properties=species:S:1:pos:R:3:initial_magmoms:R:1 pbc="T T T"
Si      -1.82895977      -1.29383326       0.63604842       0.00000000
Si       1.82433341      -1.45388251      -0.16994551       0.00000000
Si      -1.03231360       0.82847683      -1.95257908       0.00000000
Si       0.65171404       1.77292217       1.58199576       0.00000000
H       -0.02210553      -1.14145660       3.14062218       0.00000000
Si      -2.55961514       2.09267858      -0.73862840       0.00000000
Si       3.44478117       0.23324022      -0.09344815       0.00000000
Si      -3.48087981       0.36057915       0.53839904       0.00000000
Si      -1.37290492      -1.72182044       2.84919116       0.00000000
Si       2.88192909       1.26793216       1.91678112       0.00000000
