10
Lattice="16.290000149 0.0 0.0 0.0 16.290000149 0.0 0.0 0.0 29.1751946751" Properties=species:S:1:pos:R:3:initial_magmoms:R:1 pbc="T T T"
Si       1.53577234      -1.26719911      -1.20079266       0.00000000
Si       1.39217599       1.32276430       1.36623060       0.00000000
Si      -1.22341159      -1.42936606       1.44189647       0.00000000
Si      -1.46660500       1.20241378      -1.45957664       0.00000000
H        0.35178255      -1.80501347      -2.24990349       0.00000000
Si      -2.65869092       2.66546756      -0.02450716       0.00000000
Si       2.84848523       2.50250240      -0.05152339       0.00000000
Si      -2.65579130      -0.05906754       2.72710756       0.00000000
Si      -0.14722902       2.54756054      -2.85666001       0.00000000
Si       2.67055004      -2.76356595       0.18859809       0.00000000
