10
Lattice="16.290000149 0.0 0.0 0.0 16.290000149 0.0 0.0 0.0 29.1751946751" Properties=species:S:1:pos:R:3:initial_magmoms:R:1 pbc="T T T"
Si      -1.31178484       0.46007847      -0.60623137       0.00000000
H        0.57264238      -0.12116502      -2.33287774       0.00000000
Si       1.75811456      -0.63381133      -1.53385668       0.00000000
Si       1.06665292      -2.49489497      -0.11369573       0.00000000
Si      -2.57422727       0.70758874       1.33041805       0.00000000
Si       0.43316739      -2.16054272       2.21483490       0.00000000
Si      -2.28178919      -1.53727102      -1.48487153       0.00000000
Si      -1.34894233      -0.61437736       2.84694467       0.00000000
Si      -1.04265775       2.48999168      -1.80358136       0.00000000
Si       3.05624838       1.03874815      -0.35885489       0.00000000
