10
Lattice="16.290000149 0.0 0.0 0.0 16.290000149 0.0 0.0 0.0 29.1751946751" Properties=species:S:1:pos:R:3:initial_magmoms:R:1 pbc="T T T"
Si      -2.07128981       0.72365719      -0.83843674       0.00000000
Si      -0.78464044      -1.50316791       1.69878406       0.00000000
Si       1.04977648      -0.67315982      -2.06580801       0.00000000
Si       0.92533717       2.07794427       0.81888936       0.00000000
H       -1.38922750       2.27845789       1.75337085       0.00000000
Si      -1.31486365       1.30928759      -2.99191621       0.00000000
Si      -2.66603771       2.24190313       0.92447439       0.00000000
H        0.37595691      -3.58753859      -0.50718158       0.00000000
Si      -2.33489459      -2.81347036       0.52007702       0.00000000
Si      -3.36061074      -1.26316734      -0.95712144       0.00000000
