10
Lattice="16.290000149 0.0 0.0 0.0 16.290000149 0.0 0.0 0.0 29.1751946751" Properties=species:S:1:pos:R:3:initial_magmoms:R:1 pbc="T T T"
Si       1.34866540       1.40729311      -1.31736799       0.00000000
Si       1.37538100      -1.34703640       1.35970995       0.00000000
Si      -1.35233065       1.36910935       1.36286087       0.00000000
Si      -1.36083403      -1.36554184      -1.36677326       0.00000000
Si       2.73160497       0.05118318      -2.65297047       0.00000000
Si      -0.07490142       2.79928992      -2.59505188       0.00000000
Si      -2.70666660      -2.69366555       0.01671739       0.00000000
Si       2.68833872       2.72113049       0.08927610       0.00000000
Si       0.02042766      -2.69104286       2.73485357       0.00000000
Si      -2.69868125       0.02177973       2.73012719       0.00000000
