10
Lattice="16.290000149 0.0 0.0 0.0 16.290000149 0.0 0.0 0.0 29.1751946751" Properties=species:S:1:pos:R:3:initial_magmoms:R:1 pbc="T T T"
Si      -1.32701599       1.35819505       1.36583674       0.00000000
Si       1.37775934      -1.33946155       1.35795944       0.00000000
Si       1.40906872       1.40660893      -1.25677694       0.00000000
Si      -1.41641551      -1.43027830      -1.23804647       0.00000000
Si       0.08636958      -2.66326679      -2.51564867       0.00000000
Si       2.66729204       0.00856854      -2.62176177       0.00000000
Si      -2.66859524      -0.06344955      -2.65333224       0.00000000
Si      -2.64419282       2.74647774       0.02150212       0.00000000
Si       0.05320314       2.72165177       2.66958866       0.00000000
Si      -2.69698871      -0.00177561       2.70226488       0.00000000
