10
Lattice="16.290000149 0.0 0.0 0.0 16.290000149 0.0 0.0 0.0 29.1751946751" Properties=species:S:1:pos:R:3:initial_magmoms:R:1 pbc="T T T"
Si       1.38940343      -1.34961022       1.32901764       0.00000000
Si       1.37578499       1.34789977      -1.35034471       0.00000000
Si      -1.31413489      -1.36735003      -1.39311555       0.00000000
Si      -1.36925922       1.33999912       1.38013258       0.00000000
Si       0.02904181      -2.69964398       2.68245492       0.00000000
Si      -2.66239201      -2.72093501      -0.03690662       0.00000000
Si      -2.70124366       2.70713901       0.00921936       0.00000000
Si       0.03007460       2.71124898      -2.70311096       0.00000000
Si      -2.69379913      -0.01215234      -2.72350442       0.00000000
Si       2.70729703      -2.71295291      -0.06170554       0.00000000
