10
Lattice="16.290000149 0.0 0.0 0.0 16.290000149 0.0 0.0 0.0 29.1751946751" Properties=species:S:1:pos:R:3:initial_magmoms:R:1 pbc="T T T"
Si       1.24106995      -1.38896686       1.37234281       0.00000000
Si      -1.36122499       1.34741107       1.33339392       0.00000000
Si      -1.29327940      -1.43669656      -1.31302964       0.00000000
Si       1.45748260       1.29841075      -1.30223481       0.00000000
Si       2.68068242      -0.05906754       2.58287998       0.00000000
Si      -2.64824903      -0.06983523      -2.64966201       0.00000000
Si       0.09444942       2.62459595      -2.68248410       0.00000000
Si       0.02616174       2.69954624       2.62559247       0.00000000
Si      -2.60141528      -2.78335504       0.11010718       0.00000000
Si       0.13194900      -2.79850800      -2.61173425       0.00000000
