10
Lattice="16.290000149 0.0 0.0 0.0 16.290000149 0.0 0.0 0.0 29.1751946751" Properties=species:S:1:pos:R:3:initial_magmoms:R:1 pbc="T T T"
Si      -1.43332453       1.34451634      -1.26448211       0.00000000
Si      -1.38230425      -1.34345260       1.33348145       0.00000000
Si       1.34488612       1.38897175       1.33896638       0.00000000
Si       1.35299854      -1.32991561      -1.40230573       0.00000000
Si      -0.10199169       2.68682375      -2.59408034       0.00000000
Si      -0.01352070      -2.69193881       2.67457762       0.00000000
Si       2.69742854      -2.67524156      -0.03670239       0.00000000
Si       2.69829191       0.03666879       2.69806365       0.00000000
Si      -2.73289187       0.03344337       2.68210482       0.00000000
Si      -0.06530661      -2.79173136      -2.63017006       0.00000000
