10
Lattice="16.290000149 0.0 0.0 0.0 16.290000149 0.0 0.0 0.0 29.1751946751" Properties=species:S:1:pos:R:3:initial_magmoms:R:1 pbc="T T T"
Si       1.35340579      -1.35230296       1.35909727       0.00000000
Si      -1.36397800       1.36240928       1.34375112       0.00000000
Si      -1.34488612      -1.38897175      -1.33896638       0.00000000
Si       1.34729704       1.38866876      -1.33704082       0.00000000
Si      -2.77821066      -0.04445541      -2.60344850       0.00000000
Si       2.78930415       0.05813738      -2.61966991       0.00000000
Si      -0.00353493       2.70600849       2.70655363       0.00000000
Si       2.69863400      -2.71696514       0.00347185       0.00000000
Si      -0.00441459      -2.71834979       2.69736345       0.00000000
Si      -2.72795600       0.01464634       2.69406665       0.00000000
