10
Lattice="16.290000149 0.0 0.0 0.0 16.290000149 0.0 0.0 0.0 29.1751946751" Properties=species:S:1:pos:R:3:initial_magmoms:R:1 pbc="T T T"
Si      -1.36397800      -1.34776294       1.35031554       0.00000000
Si      -1.36347301       1.36394542      -1.33648649       0.00000000
Si       1.36044307       1.34359921       1.36280252       0.00000000
Si       1.36397800      -1.36240928      -1.34375112       0.00000000
Si       0.00858483      -2.69394248       2.68887347       0.00000000
Si       2.71127504       0.02625948      -2.68079194       0.00000000
Si       0.00649971       2.72391608      -2.67291464       0.00000000
Si       0.00001629       2.69508278       2.71574382       0.00000000
Si      -2.74838367       0.01280394      -2.66214899       0.00000000
Si      -2.71379999      -2.71793765      -0.00061268       0.00000000
