10
Lattice="16.290000149 0.0 0.0 0.0 16.290000149 0.0 0.0 0.0 29.1751946751" Properties=species:S:1:pos:R:3:initial_magmoms:R:1 pbc="T T T"
Si      -1.18931662      -1.14868236      -1.69230717       0.00000000
Si       0.57063871      -1.74040733       1.51696425       0.00000000
Si      -1.99456391       0.88474249       0.97696057       0.00000000
Si       1.43999219       1.42117219      -1.34550163       0.00000000
H        0.47034117       2.28022535       2.01075442       0.00000000
Si      -2.73132804       2.20990142      -0.81308350       0.00000000
Si      -2.47933802      -2.58869279      -0.41309158       0.00000000
Si      -2.62409096       0.47809521      -2.61861960       0.00000000
Si      -3.51007149      -0.96659322       0.90393506       0.00000000
H       -0.75808774       0.10761337       3.74171872       0.00000000
