10
Lattice="16.290000149 0.0 0.0 0.0 16.290000149 0.0 0.0 0.0 29.1751946751" Properties=species:S:1:pos:R:3:initial_magmoms:R:1 pbc="T T T"
Si      -1.31388625      -1.34644996      -1.39654363       0.00000000
Si       1.35687556       1.31510800      -1.39798780       0.00000000
Si       1.35127180      -1.36072000       1.36361942       0.00000000
Si      -1.37818288       1.36006840       1.33715752       0.00000000
Si       2.69902496       2.68635134      -0.03375570       0.00000000
Si      -2.69309215      -2.69881319      -0.03037138       0.00000000
Si      -0.01969461       2.71381628       2.69351232       0.00000000
Si       0.10454922      -2.73432540      -2.68146588       0.00000000
Si       2.70080057      -0.00570150       2.72321267       0.00000000
Si      -0.01581759       2.66875814      -2.75971667       0.00000000
