10
Lattice="16.290000149 0.0 0.0 0.0 16.290000149 0.0 0.0 0.0 29.1751946751" Properties=species:S:1:pos:R:3:initial_magmoms:R:1 pbc="T T T"
Si      -1.60678045       0.17493831       1.68282523       0.00000000
Si       0.82774378       1.93167310      -1.02048996       0.00000000
Si       1.76510297      -1.15817014       1.03504838       0.00000000
Si      -1.56465451      -0.77887378      -1.59109842       0.00000000
H       -0.22198383       3.04230577      -1.00216794       0.00000000
Si      -2.03584277       2.46603398       1.37362652       0.00000000
Si       1.10674261       1.19428507      -3.22692241       0.00000000
Si       0.61372576      -2.79780753       2.21623531       0.00000000
Si      -2.48521871      -2.60980463      -0.42219424       0.00000000
Si      -0.41871816      -0.65148598      -3.65089634       0.00000000
