10
Lattice="16.290000149 0.0 0.0 0.0 16.290000149 0.0 0.0 0.0 29.1751946751" Properties=species:S:1:pos:R:3:initial_magmoms:R:1 pbc="T T T"
Si       1.41480280       1.32660874      -1.23837031       0.00000000
Si      -1.42651531      -1.38945556      -1.17905714       0.00000000
Si       1.29498985      -1.29362149       1.42678372       0.00000000
Si      -1.08278002       1.42069978       1.49715429       0.00000000
H        2.13925169      -0.35943885       2.23674547       0.00000000
Si      -0.53659260      -2.11908467       2.58973616       0.00000000
Si       1.04376547       2.39054123       2.17807416       0.00000000
Si      -2.13802994      -0.34230177       2.67726174       0.00000000
Si       2.64489329       2.46410687       0.38715483       0.00000000
Si       0.00768888      -2.71137278      -2.46119025       0.00000000
