10
Lattice="16.290000149 0.0 0.0 0.0 16.290000149 0.0 0.0 0.0 29.1751946751" Properties=species:S:1:pos:R:3:initial_magmoms:R:1 pbc="T T T"
Si       1.30121263      -1.43109280      -1.29945325       0.00000000
Si       1.40447494       1.30357468       1.34097772       0.00000000
Si      -1.30282534      -1.48370950       1.27557277       0.00000000
Si      -1.26861634       1.51078348      -1.33215864       0.00000000
Si       2.56598453       0.04595409      -2.63077573       0.00000000
Si      -2.63792117       0.15916959      -2.67004555       0.00000000
Si      -2.68796405      -0.11315034       2.62717493       0.00000000
Si       0.02153538       2.65968461       2.67658021       0.00000000
Si      -0.07912053      -2.46277109      -2.93037581       0.00000000
Si      -2.73504215       2.69454521       0.02341835       0.00000000
