10
Lattice="16.290000149 0.0 0.0 0.0 16.290000149 0.0 0.0 0.0 29.1751946751" Properties=species:S:1:pos:R:3:initial_magmoms:R:1 pbc="T T T"
Si       0.91940761      -1.04352112       1.83882499       0.00000000
Si      -0.76533679      -2.04623579      -0.88222871       0.00000000
Si      -1.29872026       1.49584555       1.32426209       0.00000000
Si       1.99231589       0.60079150      -1.17015871       0.00000000
H       -0.26003727       2.68030775      -1.43982503       0.00000000
Si      -0.15491790      -1.52865361      -3.06362884       0.00000000
Si       2.27216180      -2.57443904       0.68202853       0.00000000
Si      -1.01911870      -2.08516889       2.74121377       0.00000000
Si       1.99684451       0.71504956       2.90048115       0.00000000
Si       0.29559834       2.31223520       2.88501830       0.00000000
