10
Lattice="16.290000149 0.0 0.0 0.0 16.290000149 0.0 0.0 0.0 29.1751946751" Properties=species:S:1:pos:R:3:initial_magmoms:R:1 pbc="T T T"
H        0.90679915      -0.89998993       0.80701506       0.00000000
Si       1.34682463       1.30771234      -1.39247369       0.00000000
Si      -1.14386752       1.42630354       1.46459477       0.00000000
Si      -1.31227354      -1.46785933      -1.27968239       0.00000000
H       -1.10892547      -1.24686919       2.21728562       0.00000000
Si      -2.57384609       2.64018548       0.08011508       0.00000000
Si      -0.49511826      -2.55171124       2.65937734       0.00000000
Si      -2.66028572      -0.13217706      -2.65517612       0.00000000
Si      -0.00783549       2.66615174      -2.69567129       0.00000000
Si       2.73421137       2.65984751      -0.10027514       0.00000000
