10
Lattice="16.290000149 0.0 0.0 0.0 16.290000149 0.0 0.0 0.0 29.1751946751" Properties=species:S:1:pos:R:3:initial_magmoms:R:1 pbc="T T T"
Si       1.33967332       1.31383738       1.40664408       0.00000000
Si      -1.34866540      -1.40729311       1.31736799       0.00000000
Si       1.38293956      -1.35610993      -1.33560248       0.00000000
Si      -1.42356682       1.39199680      -1.27768389       0.00000000
H        0.46532385       1.54802242      -3.14226474       0.00000000
Si      -0.02153538      -2.65968461      -2.67658021       0.00000000
Si      -2.70099605      -0.03818376       2.68022886       0.00000000
Si       2.70319520       2.69109173       0.09834666       0.00000000
Si      -2.75657754       0.03486060      -2.65316186       0.00000000
Si       0.02671560      -2.75432952       2.67707794       0.00000000
