10
Lattice="16.290000149 0.0 0.0 0.0 16.290000149 0.0 0.0 0.0 29.1751946751" Properties=species:S:1:pos:R:3:initial_magmoms:R:1 pbc="T T T"
Si       1.34298834       1.36008469       1.35381656       0.00000000
Si      -1.33551937       1.37451763      -1.35480852       0.00000000
Si       1.36571777      -1.35094600      -1.34871090       0.00000000
Si      -1.35351982      -1.34829073       1.37348064       0.00000000
Si      -2.69394248       0.00917127      -2.68616017       0.00000000
Si       2.67199985       0.00065160       2.71874887       0.00000000
Si      -0.00420282      -2.71966439      -2.67341061       0.00000000
Si      -2.68262093       2.72220563       0.01184513       0.00000000
Si       2.69452892      -2.71274114       0.02392366       0.00000000
Si       2.69356781       2.72569169      -0.00948194       0.00000000
