10
Lattice="16.290000149 0.0 0.0 0.0 16.290000149 0.0 0.0 0.0 29.1751946751" Properties=species:S:1:pos:R:3:initial_magmoms:R:1 pbc="T T T"
Si       1.36480879       1.36129015      -1.32808404       0.00000000
Si      -1.34904007       1.36700794       1.35510027       0.00000000
Si       1.38482920      -1.33662709       1.34973203       0.00000000
Si      -1.33516099      -1.35084826      -1.39457431       0.00000000
Si       2.70109379      -0.07615575      -2.62203310       0.00000000
Si      -0.02220327       2.71731863      -2.66500816       0.00000000
Si      -2.69011433      -2.69485472      -0.01943068       0.00000000
Si       0.02414178      -2.69773805       2.69386243       0.00000000
Si      -2.71790507       0.02345760       2.69768438       0.00000000
Si       0.01734885       2.72986193       2.70707879       0.00000000
