10
Lattice="16.290000149 0.0 0.0 0.0 16.290000149 0.0 0.0 0.0 29.1751946751" Properties=species:S:1:pos:R:3:initial_magmoms:R:1 pbc="T T T"
H       -1.04972761       1.11063266       0.01832202       0.00000000
Si      -0.82774378      -1.93167310       1.02048996       0.00000000
Si       0.27899883      -0.73738803      -2.20643245       0.00000000
Si       1.87077457       0.89821921       1.11860614       0.00000000
Si       2.54651798      -1.22258569      -2.08827291       0.00000000
Si      -2.39239829      -2.71054688      -0.57060846       0.00000000
Si       0.94710061       1.71513665       3.11856573       0.00000000
H        0.17870130       3.28324464      -1.71264228       0.00000000
Si      -2.86358655       0.53436087       2.39411648       0.00000000
Si       0.93735919      -3.08984325       2.05553834       0.00000000
