10
Lattice="16.290000149 0.0 0.0 0.0 16.290000149 0.0 0.0 0.0 29.1751946751" Properties=species:S:1:pos:R:3:initial_magmoms:R:1 pbc="T T T"
Si       1.22357775      -1.35515355       1.45333898       0.00000000
Si      -1.33960083      -1.21892370      -1.48360241       0.00000000
Si      -1.42736256       1.30757876       1.35304050       0.00000000
Si       1.33773807       1.40214221      -1.36140765       0.00000000
Si      -1.61633943       0.60823277      -3.05442407       0.00000000
Si      -0.29389441       2.59287607      -2.56235524       0.00000000
Si       2.51944726      -2.68958002       0.06474851       0.00000000
Si      -2.81344267      -2.52666373      -0.10673453       0.00000000
Si      -0.05862119       2.69745787       2.67077026       0.00000000
Si       2.73902017       2.66194567       0.01967575       0.00000000
