10
Lattice="16.290000149 0.0 0.0 0.0 16.290000149 0.0 0.0 0.0 29.1751946751" Properties=species:S:1:pos:R:3:initial_magmoms:R:1 pbc="T T T"
Si      -1.33854931       1.32367980       1.38192102       0.00000000
Si      -1.52865361      -1.13856838      -1.35609018       0.00000000
Si       0.96378157       1.77592278      -1.18297245       0.00000000
Si       1.36614457      -1.34429642       1.34760224       0.00000000
H       -0.87172678      -2.48736573      -1.89300917       0.00000000
Si      -2.54104454       2.70813433      -0.07350107       0.00000000
Si       1.03638610       1.08299505      -3.40641404       0.00000000
Si       0.08112420       2.73115210       2.62345685       0.00000000
Si      -0.66692890       3.51556448      -1.26604532       0.00000000
Si       0.00262269      -2.72155078       2.65589966       0.00000000
