10
Lattice="16.290000149 0.0 0.0 0.0 16.290000149 0.0 0.0 0.0 29.1751946751" Properties=species:S:1:pos:R:3:initial_magmoms:R:1 pbc="T T T"
Si      -1.02139930       1.48915036       1.47681918       0.00000000
Si       0.92056420       1.83093086      -1.16890417       0.00000000
Si      -1.33975477      -1.45933966      -1.28843495       0.00000000
Si       1.50545665      -1.31282740       1.29491184       0.00000000
H       -1.90268831       2.36918504       0.61871835       0.00000000
H        2.77073355      -1.01516023      -1.30949944       0.00000000
Si       2.32005440      -2.29933352      -0.64628891       0.00000000
Si       0.44235495      -3.00550503      -1.92054472       0.00000000
Si       0.87843826       2.78474295       2.10501947       0.00000000
Si       2.48521871       2.60980463       0.42219424       0.00000000
