10
Lattice="16.290000149 0.0 0.0 0.0 16.290000149 0.0 0.0 0.0 29.1751946751" Properties=species:S:1:pos:R:3:initial_magmoms:R:1 pbc="T T T"
Si       0.64628947       0.82644058      -1.07682726       0.00000000
H       -1.43848846      -0.91121374      -0.54858119       0.00000000
H       -0.63161218      -1.65861524       1.10436864       0.00000000
Si      -2.24691230       0.95254147       1.63366503       0.00000000
Si       0.55386001      -2.17126154       1.90338970       0.00000000
Si       1.92161729       2.28985274       0.22094375       0.00000000
Si       1.88387336      -0.53998092      -2.49427492       0.00000000
Si      -2.53397468       1.83876635      -0.60725250       0.00000000
Si      -0.93284686       1.91233199      -2.39817183       0.00000000
Si      -2.28275030      -1.84539638      -1.35854294       0.00000000
