10
Lattice="16.290000149 0.0 0.0 0.0 16.290000149 0.0 0.0 0.0 29.1751946751" Properties=species:S:1:pos:R:3:initial_magmoms:R:1 pbc="T T T"
Si      -1.34947607      -1.41063256       1.30483141       0.00000000
Si       1.33834137      -1.36304947      -1.37283879       0.00000000
Si      -1.43892447       1.34967538      -1.28630516       0.00000000
Si       1.37967887       1.35987292       1.35655903       0.00000000
Si      -2.58705997      -0.04421106       2.72227906       0.00000000
Si      -0.05995966       2.67659363      -2.67516113       0.00000000
Si       0.00048644       2.75568207       2.65415499       0.00000000
Si       2.70868876      -2.70516629      -0.01575461       0.00000000
Si       2.69870299      -0.01301571      -2.72627607       0.00000000
Si      -0.02726563      -2.78488956       2.63953821       0.00000000
