10
Lattice="16.290000149 0.0 0.0 0.0 16.290000149 0.0 0.0 0.0 29.1751946751" Properties=species:S:1:pos:R:3:initial_magmoms:R:1 pbc="T T T"
Si      -1.37039626       1.36856852      -1.30500646       0.00000000
Si      -1.38798946      -1.35913987       1.30273079       0.00000000
Si       1.32208012      -1.35488818      -1.38275835       0.00000000
Si       1.35604477       1.37304665       1.33634062       0.00000000
Si      -0.00475668      -2.70519887       2.63735007       0.00000000
Si      -0.01909188       2.69034239      -2.65673699       0.00000000
Si       2.68560200       0.02236617      -2.69105577       0.00000000
Si      -2.70513371       0.01210347       2.69129501       0.00000000
Si       2.73887031       0.01348812       2.65780188       0.00000000
Si      -0.00379557       2.73111627       2.67542370       0.00000000
