10
Lattice="16.290000149 0.0 0.0 0.0 16.290000149 0.0 0.0 0.0 29.1751946751" Properties=species:S:1:pos:R:3:initial_magmoms:R:1 pbc="T T T"
Si       0.97977835      -1.85917772       0.89474487       0.00000000
Si      -1.48594123      -1.01359639      -1.47016723       0.00000000
Si      -1.61065747       0.78711652       1.52373289       0.00000000
Si       1.66092842       1.52365258      -0.73337687       0.00000000
H        0.90981280       2.07647003       1.76480753       0.00000000
H        0.25669782       2.49595382       1.72276607       0.00000000
H       -0.89119333       0.86628592       2.84866601       0.00000000
Si      -1.95126509       2.73538424       0.14809329       0.00000000
Si       0.17427042       3.32338809      -0.85200321       0.00000000
Si      -0.05405022      -2.24008679      -2.75548044       0.00000000
