10
Lattice="16.290000149 0.0 0.0 0.0 16.290000149 0.0 0.0 0.0 29.1751946751" Properties=species:S:1:pos:R:3:initial_magmoms:R:1 pbc="T T T"
Si       1.38021913       1.36345672       1.30375192       0.00000000
Si      -1.31717683       1.38828268      -1.34433462       0.00000000
Si       1.32701599      -1.35819505      -1.36583674       0.00000000
Si      -1.36997272      -1.35997066       1.33642814       0.00000000
Si      -2.62974359       0.02614545      -2.68845334       0.00000000
Si      -0.00490329       2.67805973       2.66191559       0.00000000
Si       2.73608472       0.04841388      -2.62261368       0.00000000
Si       2.70993926      -0.00316026       2.67930400       0.00000000
Si      -0.08939952      -2.78847336      -2.60388321       0.00000000
Si      -0.00649971      -2.72391608       2.67291464       0.00000000
