10
Lattice="16.290000149 0.0 0.0 0.0 16.290000149 0.0 0.0 0.0 29.1751946751" Properties=species:S:1:pos:R:3:initial_magmoms:R:1 pbc="T T T"
Si      -1.35984034       1.35806962       1.33908309       0.00000000
Si       1.34824186       1.37118307      -1.34007504       0.00000000
Si       1.38282553      -1.35955853       1.32146127       0.00000000
Si      -1.35604477      -1.37304665      -1.33634062       0.00000000
Si       2.68239287      -0.04848556      -2.62512567       0.00000000
Si      -2.72644103      -0.00447812      -2.64134707       0.00000000
Si       0.00558747      -2.71539153       2.65298798       0.00000000
Si       0.01366731       2.70517118       2.68178389       0.00000000
Si       2.73264752       0.01061619       2.67238948       0.00000000
Si      -2.70417260       0.00231970       2.70419044       0.00000000
