10
Lattice="16.290000149 0.0 0.0 0.0 16.290000149 0.0 0.0 0.0 29.1751946751" Properties=species:S:1:pos:R:3:initial_magmoms:R:1 pbc="T T T"
Si       1.30282534       1.48370950      -1.27557277       0.00000000
Si       1.37269315      -1.35365014       1.36172887       0.00000000
Si      -1.38513871       1.37055916       1.35160216       0.00000000
Si      -1.17465562      -1.46798965      -1.44935949       0.00000000
Si       2.60403797       0.05261670      -2.57502602       0.00000000
Si      -2.52877492      -0.05519052      -2.76160139       0.00000000
Si      -2.65863065      -2.66877443      -0.01101072       0.00000000
Si       0.01581759      -2.66875814       2.75971667       0.00000000
Si       2.71484255       0.01759320       2.72596097       0.00000000
Si      -0.02430468       2.73610101       2.71837542       0.00000000
