10
Lattice="16.290000149 0.0 0.0 0.0 16.290000149 0.0 0.0 0.0 29.1751946751" Properties=species:S:1:pos:R:3:initial_magmoms:R:1 pbc="T T T"
Si       1.71934436       0.94371229       1.27896147       0.00000000
Si      -0.86157811      -1.72812304       1.38507457       0.00000000
Si       0.73536319      -0.63231265      -2.17944568       0.00000000
Si      -1.70852780       1.66586429       0.12710144       0.00000000
H       -2.90960580      -0.94411954      -0.68194129       0.00000000
Si       0.46112103       2.34175268       2.64394629       0.00000000
Si      -2.36436320      -0.49513455       2.66267677       0.00000000
Si      -0.83176741      -2.32169480      -2.62964811       0.00000000
Si       2.97891975      -1.14091903      -1.90519885       0.00000000
Si      -2.36232695       2.08787303      -2.00474462       0.00000000
