10
Lattice="16.290000149 0.0 0.0 0.0 16.290000149 0.0 0.0 0.0 29.1751946751" Properties=species:S:1:pos:R:3:initial_magmoms:R:1 pbc="T T T"
H       -1.44267499       0.28634562       0.44028286       0.00000000
Si       0.45100494      -2.13346874       0.88908488       0.00000000
Si      -0.35746776       0.23625387      -2.36120686       0.00000000
Si       1.21893184       1.58936644       1.41467601       0.00000000
H        0.18137286       2.70005123      -0.98577148       0.00000000
H        1.52955934      -1.40460526      -2.09874680       0.00000000
H        0.38183760      -3.20908116      -0.17166685       0.00000000
Si      -0.78977179       2.95686309       1.49298224       0.00000000
Si       3.41475870       0.16439868       0.37017487       0.00000000
Si      -2.66747123       2.25069158       0.21872643       0.00000000
