10
Lattice="16.290000149 0.0 0.0 0.0 16.290000149 0.0 0.0 0.0 29.1751946751" Properties=species:S:1:pos:R:3:initial_magmoms:R:1 pbc="T T T"
Si       1.79398514       1.32929985       0.62382401       0.00000000
Si      -0.73156762      -0.34530728       2.25670131       0.00000000
Si      -1.24351345       1.85750311      -0.94043323       0.00000000
Si       1.58734648      -1.54609695      -1.06699522       0.00000000
H        0.69716314      -2.49743295       1.04027074       0.00000000
H       -1.21134070      -2.95079995      -0.22701219       0.00000000
Si      -0.30452526      -2.88549334      -1.44510574       0.00000000
Si       0.44123094       2.86021777       1.78062048       0.00000000
Si      -1.49729536       1.81857000       2.68300925       0.00000000
Si      -1.19006596      -1.46270844      -3.03891745       0.00000000
