10
Lattice="16.290000149 0.0 0.0 0.0 16.290000149 0.0 0.0 0.0 29.1751946751" Properties=species:S:1:pos:R:3:initial_magmoms:R:1 pbc="T T T"
Si       1.33960083       1.21892370       1.48360241       0.00000000
Si       1.17032818      -1.59203312      -1.28592588       0.00000000
Si      -1.47384184      -1.30774004       1.37686788       0.00000000
Si      -0.27673859       1.82715646      -1.57082166       0.00000000
Si       2.48045796      -0.18509838      -2.65193767       0.00000000
Si       2.67733890       2.62106591       0.12219476       0.00000000
Si       0.64693536       1.01023902      -3.57078125       0.00000000
Si       2.52603738      -2.82779253       0.17287295       0.00000000
Si      -0.08776172       2.52650246       2.83664291       0.00000000
Si      -2.52029516       2.33576285      -1.84506849       0.00000000
