10
Lattice="16.290000149 0.0 0.0 0.0 16.290000149 0.0 0.0 0.0 29.1751946751" Properties=species:S:1:pos:R:3:initial_magmoms:R:1 pbc="T T T"
Si       1.38934111       1.34265439      -1.32601260       0.00000000
Si      -1.34522821       1.36466218       1.35562542       0.00000000
Si       1.37966425      -1.35519769       1.33038888       0.00000000
Si      -1.34609158      -1.34724817      -1.37914063       0.00000000
Si       0.03140712      -2.70878267       2.68659780       0.00000000
Si      -2.70304859      -0.00138465       2.69389160       0.00000000
Si       0.09067014       2.77510252      -2.62314175       0.00000000
Si      -2.69863400       2.71696514      -0.00347185       0.00000000
Si       2.70977799      -2.70629030      -0.06004255       0.00000000
Si       2.69379913       0.01215234       2.72350442       0.00000000
