10
Lattice="16.290000149 0.0 0.0 0.0 16.290000149 0.0 0.0 0.0 29.1751946751" Properties=species:S:1:pos:R:3:initial_magmoms:R:1 pbc="T T T"
Si      -1.34882830      -1.01975401       1.63249802       0.00000000
Si       1.23189868      -1.43028319      -1.41595972       0.00000000
Si      -1.35307999       1.30999294      -1.42593764       0.00000000
Si       1.42674337       1.27114129       1.40478562       0.00000000
Si       0.08594604      -2.64653158       2.55881045       0.00000000
Si      -0.06380793       2.53591319       2.68904852       0.00000000
Si       2.72219228       2.62966214      -0.04049517       0.00000000
Si      -1.45606537       0.71205220       3.43803412       0.00000000
Si      -2.74525599       2.66289374      -0.11229532       0.00000000
Si       2.61485453      -0.09288558      -2.79702591       0.00000000
