10
Lattice="16.290000149 0.0 0.0 0.0 16.290000149 0.0 0.0 0.0 29.1751946751" Properties=species:S:1:pos:R:3:initial_magmoms:R:1 pbc="T T T"
Si       1.35674524      -1.39553499      -1.28472970       0.00000000
Si       1.39318597       1.34105797       1.32755888       0.00000000
Si      -1.32370261      -1.38865084       1.35880552       0.00000000
Si      -1.29208697       1.34620561      -1.44078781       0.00000000
Si      -2.64281713       2.67260258      -0.03352230       0.00000000
Si       2.70804962      -0.07376112      -2.63646023       0.00000000
Si      -0.00988803      -2.70640580      -2.65821909       0.00000000
Si       0.03282435       2.69470811       2.67950823       0.00000000
Si      -2.70400970      -0.04075758       2.69783025       0.00000000
Si       2.72334593      -0.03298725       2.69570046       0.00000000
