10
Lattice="16.290000149 0.0 0.0 0.0 16.290000149 0.0 0.0 0.0 29.1751946751" Properties=species:S:1:pos:R:3:initial_magmoms:R:1 pbc="T T T"
Si      -1.46613422       1.20941848       1.33777020       0.00000000
Si       1.16874072       1.52637301      -1.32884259       0.00000000
Si      -0.23125610      -1.85248253      -1.43714091       0.00000000
Si       1.44350415      -1.17592624       1.45102831       0.00000000
H       -2.94572236      -1.25737624      -1.42897186       0.00000000
Si       2.07412264      -2.03657582      -2.03759560       0.00000000
Si      -2.61751143      -0.43021890       2.51895713       0.00000000
Si       2.52879283       0.17194095      -2.64753222       0.00000000
Si       3.14463629      -1.96397129       0.06083028       0.00000000
Si      -0.00932603       2.59520879       2.68569337       0.00000000
