10
Lattice="16.290000149 0.0 0.0 0.0 16.290000149 0.0 0.0 0.0 29.1751946751" Properties=species:S:1:pos:R:3:initial_magmoms:R:1 pbc="T T T"
Si      -1.35079939      -0.58036384      -0.29143102       0.00000000
H        0.93761983      -1.75909196      -0.47523475       0.00000000
H        1.63312138      -0.89093269       1.12986776       0.00000000
Si       1.07601967      -1.15338088       2.50311500       0.00000000
Si      -2.71085150       0.77406823       1.02725860       0.00000000
Si      -1.80685424      -0.15237666      -2.50457376       0.00000000
Si       2.07091514      -1.82850365      -1.47778196       0.00000000
Si      -1.16059735       2.08437068       2.20596564       0.00000000
Si      -1.80546959      -2.78888061       0.31850560       0.00000000
Si       0.02210553       1.14145660      -3.14062218       0.00000000
