10
Lattice="16.290000149 0.0 0.0 0.0 16.290000149 0.0 0.0 0.0 29.1751946751" Properties=species:S:1:pos:R:3:initial_magmoms:R:1 pbc="T T T"
Si       1.26244243      -0.24751026      -1.93664942       0.00000000
Si      -0.33933699       2.11849823       0.93830344       0.00000000
Si      -2.05799717      -0.69660928      -0.90944917       0.00000000
Si       1.22528494      -1.32196609       1.51652662       0.00000000
H        2.57422727      -0.70758874      -1.33041805       0.00000000
H       -2.49579092       0.24096168       1.69820056       0.00000000
H        0.37486548      -3.07229403      -0.24052030       0.00000000
H       -1.24615243       2.05319162       2.15639699       0.00000000
H       -3.19129248      -0.62719759       0.09309805       0.00000000
Si       0.29243808      -2.24485976      -2.81528959       0.00000000
