10
Lattice="16.290000149 0.0 0.0 0.0 16.290000149 0.0 0.0 0.0 29.1751946751" Properties=species:S:1:pos:R:3:initial_magmoms:R:1 pbc="T T T"
Si      -1.34372953      -1.37844352       1.31317551       0.00000000
Si       1.30438918      -1.34571691      -1.43174350       0.00000000
Si       1.22935744       1.43333757       1.42655032       0.00000000
Si      -1.40059792       1.34098141      -1.36011840       0.00000000
Si       0.20167020      -2.70265763       2.49815522       0.00000000
Si       2.64241721       2.71709057       0.04516320       0.00000000
Si      -2.70847316      -0.00884547       2.65718921       0.00000000
Si      -0.29177019       2.75027331       2.62352103       0.00000000
Si       2.65926107       0.00894321      -2.76630443       0.00000000
Si      -0.06506226       2.70454727      -2.72922276       0.00000000
