10
Lattice="16.290000149 0.0 0.0 0.0 16.290000149 0.0 0.0 0.0 29.1751946751" Properties=species:S:1:pos:R:3:initial_magmoms:R:1 pbc="T T T"
Si       1.61082037      -0.17080065      -1.68081214       0.00000000
Si      -0.43168500       2.28881833      -0.30199244       0.00000000
Si       0.25124067      -0.51323274       2.30027096       0.00000000
Si      -1.89685649      -1.30394935      -0.63140956       0.00000000
H        1.30482901      -2.20877741       1.50050944       0.00000000
H       -2.78099625      -0.45294345      -1.51964837       0.00000000
Si      -1.49651344       1.02703564       2.75201151       0.00000000
Si       0.05159043      -0.95553883      -3.27322344       0.00000000
Si      -2.32653782       2.27169265       1.03732405       0.00000000
Si      -0.86817556      -2.79016752      -2.10548627       0.00000000
