10
Lattice="16.290000149 0.0 0.0 0.0 16.290000149 0.0 0.0 0.0 29.1751946751" Properties=species:S:1:pos:R:3:initial_magmoms:R:1 pbc="T T T"
Si      -1.38010510       1.45081836      -1.15679647       0.00000000
Si       1.52723638      -1.26442981      -1.21400903       0.00000000
Si       0.84690082       1.66257696       1.39480771       0.00000000
Si      -0.92072710      -1.73178992       1.27772765       0.00000000
H        0.23397327       2.96839641       0.95455402       0.00000000
Si       2.55896354      -2.09158715       0.73953283       0.00000000
Si       0.11476305      -2.65891898      -2.51300539       0.00000000
Si      -2.61156338       0.08930960      -2.60120201       0.00000000
Si       0.09045837       1.08028928       3.54799542       0.00000000
Si       0.73054135      -3.38636523       1.37546455       0.00000000
