10
Lattice="16.290000149 0.0 0.0 0.0 16.290000149 0.0 0.0 0.0 29.1751946751" Properties=species:S:1:pos:R:3:initial_magmoms:R:1 pbc="T T T"
Si      -2.30760884      -0.08538892       0.35783376       0.00000000
H       -0.90590320       1.56585997      -1.49423677       0.00000000
Si       0.97420717      -0.40312375      -2.15210824       0.00000000
Si       1.02381022       2.15102936       0.38969308       0.00000000
Si       0.05517423      -2.06803181       1.28814320       0.00000000
H       -2.92053639       1.22043052      -0.08241992       0.00000000
Si       2.84333808       1.26351757       1.53759111       0.00000000
Si       2.89238727      -1.46327859      -1.37400579       0.00000000
Si       3.53118333      -0.78628410       0.77206318       0.00000000
Si      -3.15450966      -1.74796589      -1.03697394       0.00000000
