10
Lattice="16.290000149 0.0 0.0 0.0 16.290000149 0.0 0.0 0.0 29.1751946751" Properties=species:S:1:pos:R:3:initial_magmoms:R:1 pbc="T T T"
Si       1.67663198      -1.67959676      -0.25081915       0.00000000
Si      -1.86224024      -0.84115045      -1.25330801       0.00000000
Si      -0.63087913       0.33300018       2.32905579       0.00000000
Si       0.69242275       1.86207734      -1.41902312       0.00000000
H        2.21648258       0.78253903       1.12648344       0.00000000
H       -1.06557778       2.49590495       0.11249955       0.00000000
H       -2.61304634      -0.28901718       1.24519731       0.00000000
H        0.59494339      -1.62623071       2.55396737       0.00000000
H       -0.49295169       2.37526121      -2.21819005       0.00000000
H       -3.26459748       0.13263318       1.20190132       0.00000000
