10
Lattice="16.290000149 0.0 0.0 0.0 16.290000149 0.0 0.0 0.0 29.1751946751" Properties=species:S:1:pos:R:3:initial_magmoms:R:1 pbc="T T T"
Si      -1.36777357      -1.33050205      -1.36020593       0.00000000
Si       1.37337733       1.31808907      -1.36857921       0.00000000
Si       1.35351982      -1.37200897       1.33639897       0.00000000
Si      -1.37415925       1.37893222       1.31667654       0.00000000
Si      -0.05756886       2.63788859      -2.65406746       0.00000000
Si       0.04126257      -2.65973348      -2.67434422       0.00000000
Si       2.72355770      -0.00920385       2.66121538       0.00000000
Si      -2.73426023       0.01570356       2.65961075       0.00000000
Si      -0.01853802       2.73224027       2.67580298       0.00000000
Si      -0.00550602      -2.72771166       2.69030305       0.00000000
