10
Lattice="16.290000149 0.0 0.0 0.0 16.290000149 0.0 0.0 0.0 29.1751946751" Properties=species:S:1:pos:R:3:initial_magmoms:R:1 pbc="T T T"
H        0.99572463      -0.08048889       1.29138164       0.00000000
Si      -1.42662304       1.20593242       1.44046689       0.00000000
Si       1.29096459       1.63668889      -1.13748249       0.00000000
Si      -1.00795842      -1.85466539      -1.15627132       0.00000000
Si       1.54692937      -1.63690066       1.48945204       0.00000000
Si      -2.80005717       2.36198486      -0.03786940       0.00000000
Si       2.46729808      -2.75243988      -0.49247729       0.00000000
Si      -2.68881276      -2.60594390       0.29233545       0.00000000
Si      -0.16633882       2.79000462      -2.57106403       0.00000000
Si      -0.14711662       2.65699676       2.82665332       0.00000000
