10
Lattice="16.290000149 0.0 0.0 0.0 16.290000149 0.0 0.0 0.0 29.1751946751" Properties=species:S:1:pos:R:3:initial_magmoms:R:1 pbc="T T T"
Si       1.21124296      -1.41799564       1.45060439       0.00000000
Si      -1.48353031      -1.24869367      -1.37922815       0.00000000
Si      -1.48470319       1.29679381       1.33879133       0.00000000
Si       1.61883505       1.48416725      -0.94046240       0.00000000
Si       2.55280592      -2.77175982       0.10529328       0.00000000
H        1.17252163      -1.11332377      -3.44979172       0.00000000
Si       0.88743034       3.67315068      -0.53988698       0.00000000
Si      -2.79378390      -2.61193862       0.11054481       0.00000000
H        3.06278067      -0.68909959      -2.21083790       0.00000000
Si      -0.18893142       2.58206928       2.84526418       0.00000000
