10
Lattice="16.290000149 0.0 0.0 0.0 16.290000149 0.0 0.0 0.0 29.1751946751" Properties=species:S:1:pos:R:3:initial_magmoms:R:1 pbc="T T T"
Si      -2.06801552       0.72689890      -0.84529292       0.00000000
Si      -0.78187114      -1.49455376       1.71191290       0.00000000
Si       0.92491363       2.07764780       0.81331690       0.00000000
Si       1.05121000      -0.67345630      -2.06817120       0.00000000
H       -1.38754963       2.27837318       1.73128523       0.00000000
Si      -1.31157307       1.30918659      -2.99848063       0.00000000
Si      -2.67051746       2.24274695       0.91402967       0.00000000
H        0.39069936      -3.59767423      -0.52334464       0.00000000
Si      -2.32292144      -2.79905697       0.51260817       0.00000000
Si      -3.35366306      -1.25825101      -0.96485286       0.00000000
