10
Lattice="16.290000149 0.0 0.0 0.0 16.290000149 0.0 0.0 0.0 29.1751946751" Properties=species:S:1:pos:R:3:initial_magmoms:R:1 pbc="T T T"
Si       1.35335692       1.39641139      -1.32062394       0.00000000
Si      -1.35039214       1.36829485       1.36041015       0.00000000
Si       1.37699371      -1.34749252       1.36181056       0.00000000
Si      -1.36264222      -1.37378458      -1.36069023       0.00000000
Si       2.73181673       0.03759732      -2.64592758       0.00000000
Si      -2.70795514      -2.69493617       0.02266913       0.00000000
Si       0.07192035      -2.75040363      -2.65593467       0.00000000
Si       2.69089625       2.72124452       0.08434549       0.00000000
Si      -2.69779507       0.02150280       2.72887266       0.00000000
Si       0.02215440      -2.69232977       2.73625398       0.00000000
