10
Lattice="16.290000149 0.0 0.0 0.0 16.290000149 0.0 0.0 0.0 29.1751946751" Properties=species:S:1:pos:R:3:initial_magmoms:R:1 pbc="T T T"
Si      -1.37072206       1.34488612       1.33987082       0.00000000
Si      -1.38541564      -1.35029440      -1.32496229       0.00000000
Si       1.36295173      -1.36546039       1.33584464       0.00000000
Si       1.37106415       1.35773893      -1.33794525       0.00000000
Si       0.00700470       2.68047065       2.68499317       0.00000000
Si      -0.05512536      -2.76989461      -2.61106322       0.00000000
Si      -0.00127062      -2.71312396       2.68607265       0.00000000
Si       2.69865029      -0.00055386      -2.70421962       0.00000000
Si      -2.72021825      -0.01951542       2.69663407       0.00000000
Si      -2.71713944       2.70376535      -0.02803736       0.00000000
