10
Lattice="16.290000149 0.0 0.0 0.0 16.290000149 0.0 0.0 0.0 29.1751946751" Properties=species:S:1:pos:R:3:initial_magmoms:R:1 pbc="T T T"
Si       1.29863881       1.29743335      -1.49899233       0.00000000
Si       1.25877718      -1.64340038       1.15700070       0.00000000
Si      -0.99989650       1.76643875       1.26375273       0.00000000
Si      -1.29891574      -1.67120741      -1.17739416       0.00000000
H        0.22514409      -2.75074572       1.36811240       0.00000000
H       -3.05691627      -1.03737979       0.35412851       0.00000000
H       -2.48429018      -1.15802353      -1.97656109       0.00000000
H       -0.29292678      -1.21235068       3.18689404       0.00000000
H       -1.85427443       0.49974462      -3.08168829       0.00000000
Si      -2.52618806       2.76324015      -0.24206659       0.00000000
