10
Lattice="16.290000149 0.0 0.0 0.0 16.290000149 0.0 0.0 0.0 29.1751946751" Properties=species:S:1:pos:R:3:initial_magmoms:R:1 pbc="T T T"
Si       1.42645015       1.38937411       1.17929054       0.00000000
Si      -1.31957146       1.44078535      -1.27629807       0.00000000
Si       1.43435080      -1.32186835      -1.28201640       0.00000000
Si      -1.38403099      -1.33563340       1.34045432       0.00000000
Si       0.05696613      -2.66207924      -2.61400992       0.00000000
Si      -2.66862782       0.07913682      -2.62404618       0.00000000
Si       0.01120752      -2.61865010       2.70010592       0.00000000
Si      -2.56746692       0.11561013       2.75247539       0.00000000
Si       2.72157032       0.09563859       2.60607426       0.00000000
Si       0.06957459       2.80069086      -2.58912348       0.00000000
