10
Lattice="16.290000149 0.0 0.0 0.0 16.290000149 0.0 0.0 0.0 29.1751946751" Properties=species:S:1:pos:R:3:initial_magmoms:R:1 pbc="T T T"
Si      -0.73723654       1.32512635      -1.78989819       0.00000000
Si       1.99477568      -0.88567591      -0.97529758       0.00000000
Si      -1.51591483      -1.84996246      -0.07080820       0.00000000
Si      -0.62371153       1.07160508       2.04704836       0.00000000
H        2.46068597       1.39701412       1.03379385       0.00000000
H        1.24361119      -0.77141133       2.76907608       0.00000000
Si      -2.49471578       2.29522844      -0.52871288       0.00000000
Si       0.80484004      -2.03414014      -2.66748805       0.00000000
Si      -0.62951077      -0.40715226      -3.59476326       0.00000000
Si       2.56738547      -2.62427015       0.54376728       0.00000000
