10
Lattice="16.290000149 0.0 0.0 0.0 16.290000149 0.0 0.0 0.0 29.1751946751" Properties=species:S:1:pos:R:3:initial_magmoms:R:1 pbc="T T T"
Si       1.49045356      -1.26501625      -1.28429207       0.00000000
Si      -1.34198650       1.41460732      -1.37123415       0.00000000
Si      -1.39238776      -1.82412164       0.74872302       0.00000000
Si       1.07092090       1.69117895       1.38421711       0.00000000
H        2.95815814       0.05372442       1.64416810       0.00000000
Si      -2.46795131       2.52962525       0.38172825       0.00000000
Si       0.06374277      -2.53638560      -2.68896099       0.00000000
Si      -0.60571108       3.37077570       1.63503626       0.00000000
Si       2.77881844      -2.61275312       0.21700510       0.00000000
Si      -3.14986701      -0.85401955       2.00990834       0.00000000
