10
Lattice="16.290000149 0.0 0.0 0.0 16.290000149 0.0 0.0 0.0 29.1751946751" Properties=species:S:1:pos:R:3:initial_magmoms:R:1 pbc="T T T"
Si       1.18537444      -0.51318387       0.79916693       0.00000000
H       -0.80826094       0.74657071      -1.65373756       0.00000000
H        0.63001576       1.65776816      -1.10512720       0.00000000
H       -0.57262609       0.12064374       2.33068960       0.00000000
Si      -1.88489963       0.58010320       1.72437071       0.00000000
Si      -1.65299519      -0.18728613      -2.46378684       0.00000000
Si       2.51678873      -1.58252464      -0.82367410       0.00000000
Si      -1.61709202       2.61076574       0.52839195       0.00000000
Si       0.49295169      -2.37526121       2.21819005       0.00000000
Si      -2.85650040      -1.41654583       0.84739353       0.00000000
