10
Lattice="16.290000149 0.0 0.0 0.0 16.290000149 0.0 0.0 0.0 29.1751946751" Properties=species:S:1:pos:R:3:initial_magmoms:R:1 pbc="T T T"
Si       1.36086661       1.35394336       1.35267873       0.00000000
Si      -1.33078387      -1.35878149       1.38249577       0.00000000
Si       1.37710774      -1.36523233      -1.33202269       0.00000000
Si      -1.36924293       1.35133696      -1.36090613       0.00000000
Si      -2.66568797      -2.73492813       0.03658569       0.00000000
Si      -0.00840564       2.70734915       2.70401539       0.00000000
Si       2.71570592       2.69878061      -0.02176470       0.00000000
Si      -0.02393001       2.67248855      -2.74426549       0.00000000
Si      -2.71907795       0.00228060       2.70541580       0.00000000
Si       2.70884783      -0.00711873       2.71810701       0.00000000
