10
Lattice="16.290000149 0.0 0.0 0.0 16.290000149 0.0 0.0 0.0 29.1751946751" Properties=species:S:1:pos:R:3:initial_magmoms:R:1 pbc="T T T"
Si       0.18039546      -1.38736718      -0.61031590       0.00000000
Si      -0.69520834       1.82246006       1.92152500       0.00000000
Si      -0.51078924       1.27993789      -2.39747162       0.00000000
Si      -2.53545707       0.94372858       0.73327767       0.00000000
Si      -2.44941329       0.25024698      -1.49633738       0.00000000
Si       1.21150360       2.61503372       0.79994008       0.00000000
Si       2.05369661      -0.78078297       2.05590303       0.00000000
Si       1.01041984      -2.63202419       1.10437156       0.00000000
Si       2.91797886       0.94788253       0.67362665       0.00000000
Si       2.07524828      -1.37024151      -1.94963238       0.00000000
