10
Lattice="16.290000149 0.0 0.0 0.0 16.290000149 0.0 0.0 0.0 29.1751946751" Properties=species:S:1:pos:R:3:initial_magmoms:R:1 pbc="T T T"
Si      -0.48202110       2.03077658      -1.05687143       0.00000000
Si       1.58773744       0.81046009       1.56810836       0.00000000
Si       1.29213910      -1.50495166      -1.31597633       0.00000000
Si      -1.86598694      -0.90186328       1.27157168       0.00000000
H       -2.79096573      -0.74499058      -1.26086439       0.00000000
H        1.03092895       1.17705025      -2.75813538       0.00000000
H       -1.08431128       1.93844486      -2.45625964       0.00000000
Si      -2.19361142       2.48617982       0.46963311       0.00000000
Si       2.21654774      -2.54731619       0.52019372       0.00000000
Si       3.28741977      -0.78819166       1.58540925       0.00000000
