10
Lattice="16.290000149 0.0 0.0 0.0 16.290000149 0.0 0.0 0.0 29.1751946751" Properties=species:S:1:pos:R:3:initial_magmoms:R:1 pbc="T T T"
Si      -1.35044101      -1.34934958       1.36883887       0.00000000
Si       1.30447063       1.29549484       1.47515328       0.00000000
Si      -1.37534842       1.40906872      -1.30600133       0.00000000
Si       1.36106209      -1.34868169      -1.39133878       0.00000000
Si       2.65885382       2.63728586       0.16032645       0.00000000
Si      -2.67726152      -2.73880514       0.02098864       0.00000000
Si       2.71037909      -2.71036280      -0.01461385       0.00000000
Si      -2.73017144       0.02397888       2.70173681       0.00000000
Si      -0.00573408      -2.67289580       2.76901481       0.00000000
Si      -2.78956479       0.10764432      -2.64972736       0.00000000
