10
Lattice="16.290000149 0.0 0.0 0.0 16.290000149 0.0 0.0 0.0 29.1751946751" Properties=species:S:1:pos:R:3:initial_magmoms:R:1 pbc="T T T"
Si       1.37845981      -1.35881407      -1.32530364       0.00000000
Si       1.33753933       1.32483313       1.40496943       0.00000000
Si      -1.35335692      -1.39641139       1.32062394       0.00000000
Si      -1.33033915       1.39421224      -1.36955074       0.00000000
Si      -0.03575655      -2.66023847      -2.66902967       0.00000000
Si      -2.65794158       2.70923879       0.05153215       0.00000000
Si       2.70216893       0.04526991      -2.66580260       0.00000000
Si      -2.70374906      -0.02811654       2.68103409       0.00000000
Si      -2.75564901       0.03332934      -2.65166722       0.00000000
Si       2.68592780       2.72092058       0.09400831       0.00000000
