10
Lattice="16.290000149 0.0 0.0 0.0 16.290000149 0.0 0.0 0.0 29.1751946751" Properties=species:S:1:pos:R:3:initial_magmoms:R:1 pbc="T T T"
Si      -1.49045356       1.26501625       1.28429207       0.00000000
Si       1.29550022       1.35861859      -1.44539749       0.00000000
Si      -1.42671079      -1.27136935      -1.40466892       0.00000000
Si       1.28836487      -1.34773687       1.50129717       0.00000000
H        1.46770458       1.31874067       2.92846017       0.00000000
Si      -2.88284133      -0.55910539       2.03301509       0.00000000
Si      -2.77511556      -2.29138400       0.22815002       0.00000000
Si       2.50580927      -2.63339418      -0.10444720       0.00000000
Si       2.60518153       0.35306946       2.63828368       0.00000000
Si       2.65365731       2.77031001      -0.13292219       0.00000000
