10
Lattice="16.290000149 0.0 0.0 0.0 16.290000149 0.0 0.0 0.0 29.1751946751" Properties=species:S:1:pos:R:3:initial_magmoms:R:1 pbc="T T T"
Si       1.29577177       1.28527547       1.50647285       0.00000000
Si      -1.33656193      -1.36584712       1.40806492       0.00000000
Si       1.48470319      -1.29679381      -1.33879133       0.00000000
Si      -1.35518140       1.38682896      -1.39976749       0.00000000
Si       0.00117288      -2.54548748      -2.71801949       0.00000000
Si      -2.60519456       2.72768331       0.09012276       0.00000000
Si       2.69594615      -2.71478945       0.11181306       0.00000000
Si       2.28608975       3.06983847       0.35093675       0.00000000
Si       2.37213353       2.37635688      -1.87867831       0.00000000
Si       0.16884585       2.75606049      -2.68636440       0.00000000
