10
Lattice="16.290000149 0.0 0.0 0.0 16.290000149 0.0 0.0 0.0 29.1751946751" Properties=species:S:1:pos:R:3:initial_magmoms:R:1 pbc="T T T"
Si       1.18175806       0.53794468       1.05339958       0.00000000
Si      -1.29453373      -0.54687159      -0.92753779       0.00000000
Si      -0.06564870      -2.39832785      -1.59395759       0.00000000
Si      -0.36142623       1.81094303       2.24153021       0.00000000
Si       2.86261240       1.28922319      -0.39520719       0.00000000
Si      -3.08105805      -1.13479399       0.51400858       0.00000000
Si       2.32210694      -0.96029551       2.43154504       0.00000000
Si      -2.31792041       0.78902245      -2.54632347       0.00000000
Si      -1.83080054       3.02347290       0.78904314       0.00000000
H       -0.33120828       0.70221304      -3.60150273       0.00000000
