10
Lattice="16.290000149 0.0 0.0 0.0 16.290000149 0.0 0.0 0.0 29.1751946751" Properties=species:S:1:pos:R:3:initial_magmoms:R:1 pbc="T T T"
H       -0.65155114       0.42165036      -0.04329599       0.00000000
Si       1.98216722       0.62201737       1.08385848       0.00000000
H       -1.79835086      -1.20897865       1.08073674       0.00000000
Si       0.75080611      -0.55213327      -2.49850532       0.00000000
Si       0.20000862       2.16969770       1.71220465       0.00000000
Si      -2.51996528      -1.28795257      -0.24267927       0.00000000
Si      -0.90984538      -2.07638858      -1.76606206       0.00000000
Si       2.61304634       0.28901718      -1.24519731       0.00000000
Si       1.22127760      -1.25040412       2.36394932       0.00000000
Si      -0.73640575       1.24773256      -2.61599383       0.00000000
