10
Lattice="16.290000149 0.0 0.0 0.0 16.290000149 0.0 0.0 0.0 29.1751946751" Properties=species:S:1:pos:R:3:initial_magmoms:R:1 pbc="T T T"
Si       1.57897342      -1.08597286       1.32169467       0.00000000
Si      -1.23044887      -1.13725378      -1.62546680       0.00000000
Si      -1.60111153      -0.07376112       1.79089015       0.00000000
Si       1.29718900       1.59022981      -1.27606466       0.00000000
H        0.93273283      -1.91257634       2.39852193       0.00000000
H       -0.50554386      -2.82377379       1.84991157       0.00000000
Si      -1.71823664       2.23149544       2.02577964       0.00000000
Si      -2.64539828      -2.46389510      -0.38692143       0.00000000
Si       2.81652474      -2.45206856      -0.09619062       0.00000000
Si       0.13178610      -2.50694957      -2.88732314       0.00000000
