10
Lattice="16.290000149 0.0 0.0 0.0 16.290000149 0.0 0.0 0.0 29.1751946751" Properties=species:S:1:pos:R:3:initial_magmoms:R:1 pbc="T T T"
Si       1.25265214      -1.10390001       1.60521921       0.00000000
Si      -1.80991676      -1.32659897      -0.60468508       0.00000000
Si       1.21924135       1.32022306      -1.49624986       0.00000000
Si      -1.33338538       1.54627939       1.15737997       0.00000000
Si      -0.64220068      -1.12102568       2.94453570       0.00000000
H        3.08656407      -0.52279335      -0.77422214       0.00000000
Si      -0.19466550      -2.85529494      -1.68227090       0.00000000
Si       2.75289600       2.04187007       0.11462934       0.00000000
Si      -3.03116178       0.54366246      -1.55737189       0.00000000
Si      -2.54060471      -1.67239495       1.65793879       0.00000000
