10
Lattice="16.290000149 0.0 0.0 0.0 16.290000149 0.0 0.0 0.0 29.1751946751" Properties=species:S:1:pos:R:3:initial_magmoms:R:1 pbc="T T T"
Si       1.28811710       1.40991580       1.31892303       0.00000000
Si      -1.32240592       1.37419183      -1.33482351       0.00000000
Si       1.40450752      -1.31828455      -1.31367149       0.00000000
Si      -1.31942485      -1.32660874       1.44134214       0.00000000
Si      -2.55995723       2.74028754       0.08306178       0.00000000
Si       0.01314603      -2.69384474      -2.62544659       0.00000000
Si       2.77436622      -2.55722051       0.13111332       0.00000000
Si      -2.71037909       0.01570356      -2.66529991       0.00000000
Si       2.73587295       0.07936488      -2.65593467       0.00000000
Si       2.70462872       0.18604809       2.69672159       0.00000000
