10
Lattice="16.290000149 0.0 0.0 0.0 16.290000149 0.0 0.0 0.0 29.1751946751" Properties=species:S:1:pos:R:3:initial_magmoms:R:1 pbc="T T T"
Si      -1.37813401       1.36671472       1.31122077       0.00000000
Si      -1.37772676      -1.33558453      -1.34512235       0.00000000
Si       1.35902584       1.35570268      -1.35390408       0.00000000
Si       1.35547462      -1.35132067       1.36796653       0.00000000
Si      -0.00074934       2.70692561       2.64321429       0.00000000
Si      -0.00700470      -2.68047065      -2.68499317       0.00000000
Si      -2.73170270       0.01523115       2.67285628       0.00000000
Si       0.00550602       2.72771166      -2.69030305       0.00000000
Si       2.71572221      -2.70275537       0.01470430       0.00000000
Si      -2.72722295      -2.69998607       0.01164090       0.00000000
