10
Lattice="16.290000149 0.0 0.0 0.0 16.290000149 0.0 0.0 0.0 29.1751946751" Properties=species:S:1:pos:R:3:initial_magmoms:R:1 pbc="T T T"
Si      -1.38259747       1.35919689      -1.32219065       0.00000000
Si      -1.37671678      -1.35479044       1.33316052       0.00000000
Si       1.34982199       1.36994829       1.35127832       0.00000000
Si       1.35070165      -1.37655388      -1.34859420       0.00000000
Si      -0.00742824      -2.69697242       2.68630605       0.00000000
Si      -0.03432303       2.73277785      -2.65975662       0.00000000
Si      -2.73860967      -0.01132155      -2.66109868       0.00000000
Si       2.72425817       0.02353905       2.68802739       0.00000000
Si      -2.69729822       0.01288539       2.71694000       0.00000000
Si       2.73020403      -0.03282435      -2.68388451       0.00000000
