10
Lattice="16.290000149 0.0 0.0 0.0 16.290000149 0.0 0.0 0.0 29.1751946751" Properties=species:S:1:pos:R:3:initial_magmoms:R:1 pbc="T T T"
Si       1.36024759      -1.35143470      -1.35326223       0.00000000
Si       1.37388232       1.36445041       1.33135166       0.00000000
Si      -1.35547462       1.35132067      -1.36796653       0.00000000
Si      -1.35365014      -1.34703640       1.37438507       0.00000000
Si       0.00065160       2.72354141       2.65231695       0.00000000
Si       2.68407074      -2.71577108       0.03938651       0.00000000
Si      -2.71363709      -2.69307911       0.00694370       0.00000000
Si      -2.72383463       0.04035033       2.68502234       0.00000000
Si       0.00047241      -2.69461037      -2.71711506       0.00000000
Si       2.71611317       0.02599884      -2.70912105       0.00000000
