10
Lattice="16.290000149 0.0 0.0 0.0 16.290000149 0.0 0.0 0.0 29.1751946751" Properties=species:S:1:pos:R:3:initial_magmoms:R:1 pbc="T T T"
Si      -1.36376623      -1.34998489       1.34952780       0.00000000
Si      -1.39002571       1.34829725      -1.33246032       0.00000000
Si       1.32058144      -1.36767583      -1.38377948       0.00000000
Si       1.36169740       1.34269186       1.37727342       0.00000000
Si      -0.06366132       2.70479162       2.67565710       0.00000000
Si       0.00977400      -2.70215264       2.69453345       0.00000000
Si       2.68986998      -2.70985781      -0.03063395       0.00000000
Si      -0.04453686       2.70228296      -2.69745097       0.00000000
Si       2.69723306       2.70625772       0.00816905       0.00000000
Si       2.69729822      -0.01288539      -2.71694000       0.00000000
