10
Lattice="16.290000149 0.0 0.0 0.0 16.290000149 0.0 0.0 0.0 29.1751946751" Properties=species:S:1:pos:R:3:initial_magmoms:R:1 pbc="T T T"
Si      -1.38434050      -1.28358685      -1.37107602       0.00000000
Si       1.20115945      -1.39962052       1.44346901       0.00000000
Si      -1.42258942       1.37380087       1.29413286       0.00000000
Si       1.87466951       0.79521265      -1.20070426       0.00000000
Si       2.51662583      -2.72599469       0.04527407       0.00000000
Si       2.63187758      -0.00037467       2.68862256       0.00000000
Si       2.68965821       2.64852596      -0.01460218       0.00000000
Si       3.50694381      -0.94143169      -1.11026203       0.00000000
Si      -0.10033011       2.71075376       2.68859338       0.00000000
Si      -2.72156544      -2.68890562      -0.01912726       0.00000000
