10
Lattice="16.290000149 0.0 0.0 0.0 16.290000149 0.0 0.0 0.0 29.1751946751" Properties=species:S:1:pos:R:3:initial_magmoms:R:1 pbc="T T T"
Si      -1.39211083       1.35325918       1.31349644       0.00000000
Si       1.34011315       1.34850250      -1.37251786       0.00000000
Si      -1.39965310      -1.37111302      -1.31370067       0.00000000
Si       1.35290080      -1.30996036       1.42628774       0.00000000
Si       2.58489722      -2.74023541       0.01035719       0.00000000
Si       2.68384268       2.67571397       0.03486436       0.00000000
Si      -2.89385337      -0.00799839       2.47461084       0.00000000
Si      -0.05282847       2.64103256       2.74401458       0.00000000
Si       2.66367566      -0.02241504      -2.74602767       0.00000000
Si      -2.73419507       2.70013268      -0.06975789       0.00000000
