10
Lattice="16.290000149 0.0 0.0 0.0 16.290000149 0.0 0.0 0.0 29.1751946751" Properties=species:S:1:pos:R:3:initial_magmoms:R:1 pbc="T T T"
Si      -1.34623819       1.34504902      -1.36513653       0.00000000
Si       1.35638686       1.34791606       1.36840416       0.00000000
Si      -1.35560494      -1.37051029       1.34658111       0.00000000
Si       1.34361550      -1.30306969      -1.42436218       0.00000000
Si      -2.77070097      -0.11267793      -2.58914098       0.00000000
Si       0.11538207       2.77966323      -2.58084939       0.00000000
Si      -2.70091460       2.67356369       0.03597301       0.00000000
Si       2.68980482      -2.68626989      -0.05858379       0.00000000
Si       0.00601101      -2.71016732       2.71195105       0.00000000
Si      -2.71104698      -0.01811448       2.71265125       0.00000000
