10
Lattice="16.290000149 0.0 0.0 0.0 16.290000149 0.0 0.0 0.0 29.1751946751" Properties=species:S:1:pos:R:3:initial_magmoms:R:1 pbc="T T T"
Si      -1.38914605      -1.35990550       1.31282541       0.00000000
Si      -1.36928854       1.34218198      -1.35314553       0.00000000
Si       1.35249355      -1.36953289      -1.35060729       0.00000000
Si       1.37681452       1.36585135       1.33628227       0.00000000
Si       2.77182498      -0.08467542       2.52986866       0.00000000
Si       0.00742824       2.69697242      -2.68630605       0.00000000
Si      -0.06957459      -2.80069086       2.58912348       0.00000000
Si      -2.68986998       2.70985781       0.03063395       0.00000000
Si      -2.68009598       0.00770517       2.72516741       0.00000000
Si       2.72749989      -0.02753010      -2.69351232       0.00000000
