10
Lattice="16.290000149 0.0 0.0 0.0 16.290000149 0.0 0.0 0.0 29.1751946751" Properties=species:S:1:pos:R:3:initial_magmoms:R:1 pbc="T T T"
Si      -0.38442771      -0.64438354      -2.22306231       0.00000000
Si      -1.99045883      -0.59958604       1.17015871       0.00000000
Si       0.76795948       2.04099041       1.01121225       0.00000000
Si       1.48657654      -1.86800690       0.35269893       0.00000000
H       -2.25166898       2.08241588      -0.27200034       0.00000000
Si       1.79134616       0.70509637       2.62999792       0.00000000
H        2.75467161       1.95418100      -0.04396702       0.00000000
Si      -2.15034518      -2.12810933      -1.89034839       0.00000000
H       -0.45331812       3.29139453      -1.35273708       0.00000000
Si      -1.06605019      -1.64195056       3.00632876       0.00000000
