10
Lattice="16.290000149 0.0 0.0 0.0 16.290000149 0.0 0.0 0.0 29.1751946751" Properties=species:S:1:pos:R:3:initial_magmoms:R:1 pbc="T T T"
Si       1.39993003       1.41672828       1.25797604       0.00000000
Si      -1.26112294       1.39157815      -1.43098495       0.00000000
Si       1.42990363      -1.28205559      -1.41193355       0.00000000
Si      -1.29718900      -1.59022981       1.27606466       0.00000000
Si      -2.52763787      -2.72748359      -0.34940213       0.00000000
Si       0.28178442      -2.67620267       2.59775933       0.00000000
Si      -2.58462029       2.78585067      -0.06608182       0.00000000
Si       2.86899540       0.12346973       2.52972278       0.00000000
Si      -2.56777643       0.07770330      -2.87754945       0.00000000
Si       2.86869954      -2.63168210      -0.12524911       0.00000000
