10
Lattice="16.290000149 0.0 0.0 0.0 16.290000149 0.0 0.0 0.0 29.1751946751" Properties=species:S:1:pos:R:3:initial_magmoms:R:1 pbc="T T T"
Si      -1.22458447       1.32333445      -1.51419260       0.00000000
Si       1.33680628       1.45779211       1.29120659       0.00000000
Si      -1.61639155      -1.02623743       1.39591636       0.00000000
Si       1.78215860      -1.54768033      -0.62834617       0.00000000
H       -0.85155976      -1.74804734      -1.75550064       0.00000000
H       -0.20000862      -2.16969770      -1.71220465       0.00000000
H        1.34745994       0.61522444      -2.84490241       0.00000000
Si      -0.05093883      -2.30943332       2.51814023       0.00000000
Si       0.03518640       1.07468389      -3.45122130       0.00000000
Si       1.02126898      -3.42010182       0.65174467       0.00000000
