10
Lattice="16.290000149 0.0 0.0 0.0 16.290000149 0.0 0.0 0.0 29.1751946751" Properties=species:S:1:pos:R:3:initial_magmoms:R:1 pbc="T T T"
Si      -1.39209454      -1.34330599      -1.32960115       0.00000000
Si      -1.35930277       1.35767377       1.35159924       0.00000000
Si       1.33081156      -1.36897903       1.37108827       0.00000000
Si       1.35954712       1.34346889      -1.37193435       0.00000000
Si      -0.03601719      -2.73424069      -2.62346268       0.00000000
Si       2.70659981       2.70269021      -0.01123245       0.00000000
Si       2.69004917      -2.72495050       0.02940860       0.00000000
Si       2.70352100      -0.02059056       2.71343898       0.00000000
Si      -2.70245075       2.71591769      -0.01172843       0.00000000
Si      -0.01124010       2.71972955       2.70179808       0.00000000
