10
Lattice="16.290000149 0.0 0.0 0.0 16.290000149 0.0 0.0 0.0 29.1751946751" Properties=species:S:1:pos:R:3:initial_magmoms:R:1 pbc="T T T"
Si       2.06801552      -0.72689890       0.84529292       0.00000000
Si       0.75644245       0.58228768      -2.15318772       0.00000000
Si      -1.28564754      -1.98514992      -0.11955995       0.00000000
Si      -0.60250195       1.51584804       1.75932259       0.00000000
H        0.68046589       1.55147428       2.57657814       0.00000000
H        0.14351490       1.88810713      -2.59344141       0.00000000
Si      -0.08091243       3.51192692       0.06328100       0.00000000
Si       1.28614438      -2.22145266       2.55720581       0.00000000
Si       3.11922552      -1.40035520      -1.22287828       0.00000000
Si      -1.96355426       0.13184149       3.09589661       0.00000000
