10
Lattice="16.290000149 0.0 0.0 0.0 16.290000149 0.0 0.0 0.0 29.1751946751" Properties=species:S:1:pos:R:3:initial_magmoms:R:1 pbc="T T T"
Si      -1.28296783      -0.03562623      -0.81725555       0.00000000
Si       2.31246326      -0.20072538      -0.91796833       0.00000000
Si       2.16930674       0.21589137       1.44011678       0.00000000
Si       1.45039645       1.87541885      -1.71237970       0.00000000
H        1.30370500       2.66820428      -0.43438947       0.00000000
Si       0.64527949      -1.15334016       2.72671369       0.00000000
Si      -2.64402015      -1.41963279       0.51931847       0.00000000
Si      -0.80270605      -2.59349834       1.45178686       0.00000000
Si      -0.68046589      -1.55147428      -2.57657814       0.00000000
Si      -2.07543236       2.22612626      -0.60243859       0.00000000
