10
Lattice="10.86 0.0 0.0 0.0 10.86 0.0 0.0 0.0 10.86" Properties=species:S:1:pos:R:3:initial_magmoms:R:1 pbc="T T T"
Si       0.86883258       1.86947298       0.98998674       0.00000000
Si       0.85707120      -1.53581034      -1.65254448       0.00000000
Si      -1.85792880      -1.53581034       1.06245552       0.00000000
Si      -1.85792880       1.17918966      -1.65254448       0.00000000
Si       2.18982126       0.06141330       2.28076290       0.00000000
Si      -0.45893274       2.62389546       2.45454462       0.00000000
Si       2.21457120      -2.89331034      -0.29504448       0.00000000
Si       2.09333016      -0.28792032      -3.01901484       0.00000000
Si      -0.50042880      -2.89331034       2.41995552       0.00000000
Si       1.12279368       3.60973368      -1.09089786       0.00000000
