10
Lattice="16.2900001489832 0.0 0.0 0.0 16.2900001489832 0.0 0.0 0.0 29.18601123518865" Properties=species:S:1:pos:R:3:initial_magmoms:R:1 pbc="T T T"
Si      -0.54068139       2.03761023       0.98397718       0.00000000
Si       0.97080256      -1.70220728       1.29445797       0.00000000
Si      -1.90319330      -0.57176272      -1.27140102       0.00000000
Si       1.76972933       0.33107796      -1.57493554       0.00000000
H        0.93252106       1.10724760       2.60902510       0.00000000
Si       0.65381545      -3.18764352      -0.56180153       0.00000000
Si      -0.85895542      -1.75601315       2.87689431       0.00000000
Si      -1.02360008      -2.54066987      -2.15958972       0.00000000
Si       1.05849163       3.49646934       0.00811371       0.00000000
Si      -2.02882178       1.30763089      -2.79488162       0.00000000
