10
Lattice="16.2900001489832 0.0 0.0 0.0 16.2900001489832 0.0 0.0 0.0 29.18601123518865" Properties=species:S:1:pos:R:3:initial_magmoms:R:1 pbc="T T T"
Si      -1.35747829      -1.32742324       1.37404822       0.00000000
Si       1.30368871      -1.45375219      -1.30893423       0.00000000
Si       1.30833136       1.27198837       1.49312715       0.00000000
Si      -1.34775316       1.35997392      -1.37760892       0.00000000
Si       2.53558739       0.01003363      -2.71413268       0.00000000
Si       2.71277372       2.65033415       0.16195318       0.00000000
Si      -2.79029784      -0.08060292      -2.60060494       0.00000000
Si      -2.71577108       2.69260670       0.05507400       0.00000000
Si      -2.78027949      -0.00188964       2.65245389       0.00000000
Si      -0.16881327      -2.82133029      -2.61114984       0.00000000
