10
Lattice="16.2900001489832 0.0 0.0 0.0 16.2900001489832 0.0 0.0 0.0 29.18601123518865" Properties=species:S:1:pos:R:3:initial_magmoms:R:1 pbc="T T T"
Si       2.01991115      -1.09703605       0.34938574       0.00000000
Si      -0.45416520       1.13290370       1.98768411       0.00000000
Si      -0.07975584       1.55440582      -1.74929277       0.00000000
Si      -1.86258233      -1.63400333      -1.52701211       0.00000000
Si      -0.98093494      -0.12232389      -3.10953601       0.00000000
Si      -3.34046653      -0.24062187      -0.08945512       0.00000000
Si      -2.80786823       1.48198374       1.53503826       0.00000000
Si       1.35079939      -2.85225099       1.88958993       0.00000000
Si       3.62915139       0.32686309       1.24011362       0.00000000
Si       3.12096855      -1.72350059      -1.59472365       0.00000000
