10
Lattice="16.2900001489832 0.0 0.0 0.0 16.2900001489832 0.0 0.0 0.0 29.18601123518865" Properties=species:S:1:pos:R:3:initial_magmoms:R:1 pbc="T T T"
Si      -0.80594776      -2.20974504      -0.24031762       0.00000000
Si      -1.14023485       0.86745391      -1.89390946       0.00000000
Si      -1.02078028       1.40814997       1.63622616       0.00000000
Si       2.42263253      -0.02940019      -0.33371285       0.00000000
H        1.08387145       2.34752912       0.37860094       0.00000000
H        1.56484999       2.88057050       0.67084047       0.00000000
Si       0.66472975      -3.11770077      -1.99200364       0.00000000
Si      -1.77867254       3.35211713       0.46020503       0.00000000
Si      -1.06249897       3.21184394      -1.80912409       0.00000000
Si      -3.30373909      -2.06627900      -0.40743672       0.00000000
