10
Lattice="16.2900001489832 0.0 0.0 0.0 16.2900001489832 0.0 0.0 0.0 29.18601123518865" Properties=species:S:1:pos:R:3:initial_magmoms:R:1 pbc="T T T"
Si      -0.56778796       2.24149750      -0.34602935       0.00000000
Si       1.92295307      -0.21580992       1.33730303       0.00000000
Si      -1.92873602      -0.78855981       1.11105308       0.00000000
Si       0.14046867      -0.93139705      -2.18112899       0.00000000
Si      -0.73586818       0.83102784      -3.53635224       0.00000000
Si      -2.08407746       2.21217550      -2.19297851       0.00000000
Si       1.26641719      -1.45417850       3.21489751       0.00000000
Si      -3.62129961      -0.99815673      -0.52683669       0.00000000
Si       1.19172754       3.31184825      -1.46172300       0.00000000
Si      -0.72930331       3.26131667       1.83790150       0.00000000
