10
Lattice="16.2900001489832 0.0 0.0 0.0 16.2900001489832 0.0 0.0 0.0 29.18601123518865" Properties=species:S:1:pos:R:3:initial_magmoms:R:1 pbc="T T T"
Si      -1.37266057      -1.21125925      -1.46486342       0.00000000
Si       1.29894832      -1.39862683       1.38076101       0.00000000
Si       1.27620748       1.35003376      -1.45626814       0.00000000
Si      -1.40719537       1.38416131       1.31337051       0.00000000
Si      -0.47843730       2.37641780      -2.71714760       0.00000000
Si      -2.49313565       0.44144271      -2.74986220       0.00000000
Si       2.60289767      -2.71513252      -0.10410650       0.00000000
Si       2.66492999       0.00172674       2.69731279       0.00000000
Si      -2.73303848      -0.01286910       2.65455528       0.00000000
Si       2.63406044       2.76418497      -0.06172841       0.00000000
