10
Lattice="16.2900001489832 0.0 0.0 0.0 16.2900001489832 0.0 0.0 0.0 29.18601123518865" Properties=species:S:1:pos:R:3:initial_magmoms:R:1 pbc="T T T"
Si      -1.83321146      -1.49708359       0.19974906       0.00000000
Si       1.69139072      -1.65060056      -0.32872204       0.00000000
H        1.75102841       1.59057190       0.44750911       0.00000000
Si      -0.36075834       1.66358369      -1.76131741       0.00000000
Si       0.09438426       0.98373682       2.27437830       0.00000000
H       -0.45827028      -0.65388061      -2.67764141       0.00000000
H       -0.93924883      -1.18692199      -2.96988095       0.00000000
Si      -3.18142074      -0.11593593       1.54312279       0.00000000
Si       3.26003628       1.53445285       0.39847661       0.00000000
Si      -0.95687461      -3.25950848       1.55497231       0.00000000
