10
Lattice="16.2900001489832 0.0 0.0 0.0 16.2900001489832 0.0 0.0 0.0 29.18601123518865" Properties=species:S:1:pos:R:3:initial_magmoms:R:1 pbc="T T T"
Si       0.56778796      -2.24149750       0.34602935       0.00000000
Si       1.75951550       1.07035075      -1.11569365       0.00000000
Si      -1.51628950      -0.02932200      -1.84694916       0.00000000
Si      -0.16151535       1.01981917       2.18393085       0.00000000
H       -1.14572458       2.42163884      -0.23772006       0.00000000
H       -2.63842616       0.91378756       1.39967354       0.00000000
H       -1.86921236       2.48199329      -0.49928509       0.00000000
Si      -0.16808022      -1.41046966      -3.19032289       0.00000000
Si       0.72166330       3.10979361       1.69477330       0.00000000
Si       3.52473249       0.72443260       0.44575795       0.00000000
