10
Lattice="16.2900001489832 0.0 0.0 0.0 16.2900001489832 0.0 0.0 0.0 29.18601123518865" Properties=species:S:1:pos:R:3:initial_magmoms:R:1 pbc="T T T"
Si       1.50900787      -0.05611905      -0.04903250       0.00000000
H        0.41363568       2.12683871       0.50310846       0.00000000
Si      -1.75102841      -1.59057190      -0.44750911       0.00000000
Si      -1.65664415      -0.60683509       1.82686919       0.00000000
Si       1.86981509      -2.32940486       0.15471505       0.00000000
Si      -2.11178675       0.07301178      -2.20882652       0.00000000
Si      -0.08306271       3.05821947      -0.58004279       0.00000000
Si       2.17541549       0.62773516      -2.15754669       0.00000000
Si       2.63179613       1.11198799       1.65505114       0.00000000
Si      -0.05963769      -3.24117246      -0.77623115       0.00000000
