10
Lattice="16.2900001489832 0.0 0.0 0.0 16.2900001489832 0.0 0.0 0.0 29.18601123518865" Properties=species:S:1:pos:R:3:initial_magmoms:R:1 pbc="T T T"
H       -0.53056530       0.81511903       2.13437300       0.00000000
Si       1.54740340       0.08897598      -1.78230215       0.00000000
Si      -0.56308015       2.32614686      -0.42885925       0.00000000
Si      -1.47745414      -1.85523554      -0.54172155       0.00000000
Si       1.45047790      -0.55847008       1.91107083       0.00000000
H       -0.90275923      -1.48281355       2.40323454       0.00000000
H       -1.62624700      -1.42245910       2.14166950       0.00000000
H       -2.68913693       0.64275454      -2.17663435       0.00000000
Si      -1.56209698       1.63198108       2.85132737       0.00000000
Si      -0.80568712      -2.07741485      -2.88602953       0.00000000
