10
Lattice="16.2900001489832 0.0 0.0 0.0 16.2900001489832 0.0 0.0 0.0 29.18601123518865" Properties=species:S:1:pos:R:3:initial_magmoms:R:1 pbc="T T T"
Si      -0.37698318      -1.01022436      -2.08382283       0.00000000
Si      -1.99111043       1.14455170       0.60301218       0.00000000
Si       1.96162553       1.28536246      -0.44097144       0.00000000
Si       0.46576368      -1.79784587       1.61208933       0.00000000
Si      -1.64471986       0.43932501       2.96553223       0.00000000
Si       1.74835685      -1.96814153      -2.37051702       0.00000000
Si       3.24293178      -0.47433222      -1.36362882       0.00000000
Si       2.49442256      -1.05586894       2.51274045       0.00000000
Si      -1.87706414      -2.82488151      -1.67157042       0.00000000
Si       1.57249000       3.13947399      -1.90155619       0.00000000
