10
Lattice="16.2900001489832 0.0 0.0 0.0 16.2900001489832 0.0 0.0 0.0 29.18601123518865" Properties=species:S:1:pos:R:3:initial_magmoms:R:1 pbc="T T T"
H        0.49669839      -0.93138076       1.08315125       0.00000000
Si      -2.02865888      -0.74197693      -0.90065112       0.00000000
Si       1.50692275      -0.23723127      -1.79864631       0.00000000
Si      -0.27130995       1.82998604       1.49695052       0.00000000
H        0.08306271      -3.05821947       0.58004279       0.00000000
Si       2.87150349       1.30021894      -0.76692082       0.00000000
Si      -0.64037620       0.40557213       3.33870457       0.00000000
Si       1.23660649       2.94550896      -1.44018372       0.00000000
Si       1.59207058      -3.11433852       0.53101029       0.00000000
Si       2.25847820      -2.43048431      -1.57750391       0.00000000
