10
Lattice="16.2900001489832 0.0 0.0 0.0 16.2900001489832 0.0 0.0 0.0 29.18601123518865" Properties=species:S:1:pos:R:3:initial_magmoms:R:1 pbc="T T T"
Si       0.94592773       0.74803681       2.06320583       0.00000000
Si       2.11665746      -0.67337974      -0.94133642       0.00000000
Si      -1.80711488      -1.64203201      -0.02168521       0.00000000
Si      -0.05216058       1.37459908      -2.03502382       0.00000000
Si       0.94151314      -0.64837459      -2.95181480       0.00000000
Si       2.11970369       2.45705493       0.92207599       0.00000000
Si       3.13602051       1.48266694      -1.05910198       0.00000000
Si      -0.94377745      -3.41062104      -1.28217066       0.00000000
Si      -3.59611527      -0.65912599      -1.29647181       0.00000000
Si       3.04093578      -2.53304615       0.18804547       0.00000000
