10
Lattice="16.2900001489832 0.0 0.0 0.0 16.2900001489832 0.0 0.0 0.0 29.18601123518865" Properties=species:S:1:pos:R:3:initial_magmoms:R:1 pbc="T T T"
Si      -1.15351120      -1.39132891       1.51815707       0.00000000
Si       1.09872793      -1.50309460      -1.46646865       0.00000000
Si      -1.80911855       0.93680533      -1.27674498       0.00000000
Si       1.46108269       1.33788142       1.37678003       0.00000000
Si      -2.56192832      -2.70510113       0.14195492       0.00000000
Si      -2.68879484       2.64228689       0.10879961       0.00000000
Si       2.75923281      -2.58799232      -0.02212008       0.00000000
Si      -2.50553234      -0.02985957       2.90303331       0.00000000
Si       1.65426581      -0.35308575      -3.45837889       0.00000000
Si      -3.54493209      -0.95040748      -1.16928792       0.00000000
