10
Lattice="16.2900001489832 0.0 0.0 0.0 16.2900001489832 0.0 0.0 0.0 29.18601123518865" Properties=species:S:1:pos:R:3:initial_magmoms:R:1 pbc="T T T"
Si      -1.60780672      -0.35117982      -1.68601750       0.00000000
Si       1.99814771       1.04407498      -0.71231379       0.00000000
Si      -1.16711335       1.52559109       1.40606528       0.00000000
Si       0.26490798      -2.01551285       1.26827812       0.00000000
H       -2.90299206       0.05675436      -0.97878207       0.00000000
Si      -1.46132704      -3.36880461       0.29971115       0.00000000
Si      -1.65420065       0.31094352       3.35510711       0.00000000
Si       2.18375597       3.00833509       0.65137340       0.00000000
Si      -1.80771761      -2.66357792      -2.06280890       0.00000000
Si       0.05297508       3.51770173       1.53442535       0.00000000
