10
Lattice="16.2900001489832 0.0 0.0 0.0 16.2900001489832 0.0 0.0 0.0 29.18601123518865" Properties=species:S:1:pos:R:3:initial_magmoms:R:1 pbc="T T T"
Si       2.26227540      -0.10197540      -0.71117554       0.00000000
Si      -1.38872251      -1.15303879      -1.54236395       0.00000000
Si       0.10691290      -1.19607697       2.18524422       0.00000000
Si      -1.45149147       2.05960988       0.00668360       0.00000000
Si      -0.55470220       2.50924646       2.23544416       0.00000000
Si      -1.24460651       0.44442378       3.16061153       0.00000000
Si       1.87783140       0.70879420      -2.86343956       0.00000000
H       -2.57199391       0.22763646       2.44030077       0.00000000
Si      -1.23366940      -3.02326113       1.46484590       0.00000000
Si      -2.88169940      -2.20856564      -0.13568577       0.00000000
