10
Lattice="16.2900001489832 0.0 0.0 0.0 16.2900001489832 0.0 0.0 0.0 29.18601123518865" Properties=species:S:1:pos:R:3:initial_magmoms:R:1 pbc="T T T"
Si       1.22008843       1.99211063       0.12836008       0.00000000
Si      -2.20503071       0.71698807      -0.36751025       0.00000000
Si      -0.48708729      -1.21464757       1.94904183       0.00000000
Si       1.16711335      -1.52559109      -1.40606528       0.00000000
H       -1.73587871      -1.46883673      -2.38484735       0.00000000
Si      -0.44069337      -1.87677092      -3.09208277       0.00000000
Si      -2.54167985       1.92535096       1.78265238       0.00000000
Si      -2.43908543      -2.35908524       1.37083776       0.00000000
Si       3.35086932       1.48274400      -0.75469188       0.00000000
Si       1.11048931      -2.88859170       2.18264666       0.00000000
