10
Lattice="16.2900001489832 0.0 0.0 0.0 16.2900001489832 0.0 0.0 0.0 29.18601123518865" Properties=species:S:1:pos:R:3:initial_magmoms:R:1 pbc="T T T"
Si      -1.37225332       1.21010266       1.45092418       0.00000000
Si      -1.36598167      -1.40035357      -1.31655178       0.00000000
Si       1.34532595      -1.36119241       1.38563507       0.00000000
Si       1.35257500       1.42460938      -1.32069619       0.00000000
Si      -2.66492999      -0.00172674      -2.69731279       0.00000000
Si      -2.72197757       2.66310551       0.08574850       0.00000000
Si       2.69672807       2.70114266       0.18439722       0.00000000
Si       2.74870947       0.08752617      -2.65922504       0.00000000
Si       2.69130350      -2.75115297       0.04640576       0.00000000
Si      -0.03531672      -2.82572859       2.61389917       0.00000000
