10
Lattice="16.2900001489832 0.0 0.0 0.0 16.2900001489832 0.0 0.0 0.0 29.18601123518865" Properties=species:S:1:pos:R:3:initial_magmoms:R:1 pbc="T T T"
Si      -0.36080721       2.27328581      -0.20374754       0.00000000
Si      -1.92945278      -0.91176760      -0.93094620       0.00000000
Si      -0.19184733      -0.12237048       2.32682556       0.00000000
Si       2.20081160      -0.50438727      -0.62370506       0.00000000
H       -1.86981509       2.32940486      -0.15471505       0.00000000
Si       2.67172292      -2.04585297       1.15740046       0.00000000
Si      -3.62084349       0.73883296      -0.60222416       0.00000000
Si       1.93855889       0.44103546       3.18168383       0.00000000
Si       0.30560040       2.95714002      -2.31226174       0.00000000
Si      -1.51628950      -1.58049491      -3.11569426       0.00000000
