10
Lattice="16.2900001489832 0.0 0.0 0.0 16.2900001489832 0.0 0.0 0.0 29.18601123518865" Properties=species:S:1:pos:R:3:initial_magmoms:R:1 pbc="T T T"
Si      -0.97733485       1.69590305       1.35796089       0.00000000
Si       1.75464479      -1.02638404       1.26087946       0.00000000
Si       1.18772020       1.44409222      -1.53837714       0.00000000
Si      -2.01469835      -1.93497509      -0.03271460       0.00000000
Si       0.47843730      -2.37641780       2.71714760       0.00000000
Si      -2.36521028       0.43662087       2.78398357       0.00000000
Si      -0.89422327      -3.58767705       1.25228418       0.00000000
Si       2.68332140       2.89790958      -0.25046267       0.00000000
Si      -1.96033862       3.45059670       0.04671805       0.00000000
Si      -3.63799686      -0.88780501       1.32158929       0.00000000
