10
Lattice="16.2900001489832 0.0 0.0 0.0 16.2900001489832 0.0 0.0 0.0 29.18601123518865" Properties=species:S:1:pos:R:3:initial_magmoms:R:1 pbc="T T T"
Si       1.52174665       1.72364492       0.44473644       0.00000000
Si       1.56939490      -1.49902210      -0.90678018       0.00000000
Si      -1.76521700       0.34591815      -1.56145160       0.00000000
Si      -0.44417943      -1.06072336       2.11621930       0.00000000
Si       2.85847149       0.17386317       1.82453431       0.00000000
H       -0.10857285       0.95275324      -3.38832079       0.00000000
H        1.44469495       1.50174253       2.86110468       0.00000000
Si      -1.03399147      -3.18174002       1.23757443       0.00000000
Si      -3.52473249      -0.72443260      -0.44575795       0.00000000
Si       0.93548584      -3.52120571       0.05282668       0.00000000
