10
Lattice="16.2900001489832 0.0 0.0 0.0 16.2900001489832 0.0 0.0 0.0 29.18601123518865" Properties=species:S:1:pos:R:3:initial_magmoms:R:1 pbc="T T T"
Si      -1.08413209       1.82838962       1.08306369       0.00000000
Si       1.64234152       1.03801510      -1.46169381       0.00000000
Si      -2.09525240      -0.93053368      -0.80973670       0.00000000
Si       0.99813718      -1.64695160       1.49584145       0.00000000
Si      -3.04240188       0.47737845       0.84776607       0.00000000
Si       1.19053837      -0.23574888      -3.42527028       0.00000000
Si       3.78275143       0.71270380      -0.36511700       0.00000000
Si       2.33854355      -0.46522611       3.07188314       0.00000000
Si      -2.69674436       0.00272043      -3.01760007       0.00000000
Si       2.04563306      -3.49770738       0.30152068       0.00000000
