10
Lattice="16.2900001489832 0.0 0.0 0.0 16.2900001489832 0.0 0.0 0.0 29.18601123518865" Properties=species:S:1:pos:R:3:initial_magmoms:R:1 pbc="T T T"
Si      -0.83367334      -0.61660909       1.13527746       0.00000000
Si       1.91181071      -0.64767412      -1.33540594       0.00000000
Si       1.80520895       1.72449200      -1.06870417       0.00000000
Si      -2.60307686      -1.22088664      -0.37825071       0.00000000
H       -0.05960511       0.51034941      -2.93395297       0.00000000
Si       0.80122366      -2.26189910       1.80854037       0.00000000
Si      -0.85520872       1.11682612       2.66637561       0.00000000
Si      -0.21924711       2.90743923      -1.08834636       0.00000000
Si       2.73199592      -1.73550404       0.60196148       0.00000000
Si      -2.42706341       2.41491107      -0.36602177       0.00000000
