10
Lattice="16.2900001489832 0.0 0.0 0.0 16.2900001489832 0.0 0.0 0.0 29.18601123518865" Properties=species:S:1:pos:R:3:initial_magmoms:R:1 pbc="T T T"
Si       1.34820928      -1.38114766      -1.34337373       0.00000000
Si       1.51628950       0.02932200       1.84694916       0.00000000
Si      -1.97825273      -0.99976618       0.96118291       0.00000000
Si      -0.20412999       2.07853886      -1.33572699       0.00000000
H       -0.35292285       2.51131529       1.34766407       0.00000000
H        0.37056492       2.45096084       1.60922910       0.00000000
Si       3.27580500       1.09967275       0.73125551       0.00000000
Si       3.18142074       0.11593593      -1.54312279       0.00000000
H       -1.12213666       0.94310956       3.24662270       0.00000000
Si      -2.44556722       0.71899174       2.53956240       0.00000000
