10
Lattice="16.2900001489832 0.0 0.0 0.0 16.2900001489832 0.0 0.0 0.0 29.18601123518865" Properties=species:S:1:pos:R:3:initial_magmoms:R:1 pbc="T T T"
Si      -1.50192172       1.19464244       1.35373768       0.00000000
Si       1.17377596       1.70901812      -1.14112984       0.00000000
Si      -0.94592773      -0.74803681      -2.06320583       0.00000000
Si       1.32235705      -1.46714257       1.39963560       0.00000000
Si       1.17072973      -1.42141654      -3.00454225       0.00000000
Si      -0.67456891       3.39840354      -1.11118704       0.00000000
Si      -0.02078604       2.51843728       2.74495603       0.00000000
Si      -2.76384288       2.66435659      -0.14023295       0.00000000
Si       2.19009278       0.73463014      -3.12230781       0.00000000
Si       2.67731039      -0.13237254       2.81307618       0.00000000
