10
Lattice="16.2900001489832 0.0 0.0 0.0 16.2900001489832 0.0 0.0 0.0 29.18601123518865" Properties=species:S:1:pos:R:3:initial_magmoms:R:1 pbc="T T T"
Si      -0.53939774      -0.10072107       2.25470693       0.00000000
Si       1.18543960       1.96696865      -0.40778695       0.00000000
Si       1.16372503      -2.02245239      -0.44908515       0.00000000
Si      -1.93337867       0.60774733      -1.24495850       0.00000000
H        0.38538882       1.00199791      -2.68703931       0.00000000
H        1.98355187       2.40106457       0.84473072       0.00000000
H       -3.04124529      -0.45937800      -1.29717227       0.00000000
Si      -0.43544799      -3.48131150       0.52677832       0.00000000
Si      -2.50484816      -1.54640971       2.00303595       0.00000000
Si      -0.93804174       0.77788009      -3.39409962       0.00000000
