10
Lattice="16.2900001489832 0.0 0.0 0.0 16.2900001489832 0.0 0.0 0.0 29.18601123518865" Properties=species:S:1:pos:R:3:initial_magmoms:R:1 pbc="T T T"
Si       1.98759179      -1.18219789      -0.18985500       0.00000000
Si      -1.09880938      -0.58018465       1.96299274       0.00000000
Si       0.36049770       2.34202798       0.06928759       0.00000000
Si      -1.77481181      -0.57894661      -1.50062795       0.00000000
Si       2.43263459      -0.34992549      -2.44152658       0.00000000
Si      -1.51940089       1.37122705      -2.82473891       0.00000000
Si      -1.42697143       3.03778366      -1.25940557       0.00000000
Si      -0.21426237       2.86132549       2.28050736       0.00000000
Si       1.29142234      -3.48496860      -0.31077265       0.00000000
Si       0.78553639       1.16856316      -3.45757919       0.00000000
