10
Lattice="16.2900001489832 0.0 0.0 0.0 16.2900001489832 0.0 0.0 0.0 29.18601123518865" Properties=species:S:1:pos:R:3:initial_magmoms:R:1 pbc="T T T"
Si       1.26643348      -1.36816942       1.40796237       0.00000000
Si       1.40396213       1.37672819      -1.33100177       0.00000000
Si      -1.36692649      -1.37115049      -1.39550286       0.00000000
Si      -1.29599983       1.35164159       1.50456807       0.00000000
Si      -2.54830988       0.25543861      -2.70336888       0.00000000
Si       2.65856223      -0.01590556       2.68642640       0.00000000
Si       2.62917507      -2.71553162       0.09841523       0.00000000
Si      -2.73836531      -2.66291492       0.07906490       0.00000000
Si      -2.62571996       2.79228033       0.15313900       0.00000000
Si       0.10101429       2.88487269      -2.60828378       0.00000000
