10
Lattice="16.2900001489832 0.0 0.0 0.0 16.2900001489832 0.0 0.0 0.0 29.18601123518865" Properties=species:S:1:pos:R:3:initial_magmoms:R:1 pbc="T T T"
Si      -1.41142100       0.34501895       1.90651781       0.00000000
Si       0.52266140       2.17935441      -0.89647752       0.00000000
Si       2.35370303      -0.34908004       0.45264585       0.00000000
Si      -0.53259830      -1.72260561      -1.62449339       0.00000000
Si       2.43143891       1.99530999       0.53743121       0.00000000
Si       2.80786823      -1.48198374      -1.53503826       0.00000000
Si      -0.89624974      -1.54992901       3.24425864       0.00000000
Si      -2.10991992      -0.51987255      -3.00420369       0.00000000
Si       1.03527186       1.80351153      -3.15626281       0.00000000
Si      -0.70659049      -3.73244954      -0.28964198       0.00000000
