10
Lattice="16.2900001489832 0.0 0.0 0.0 16.2900001489832 0.0 0.0 0.0 29.18601123518865" Properties=species:S:1:pos:R:3:initial_magmoms:R:1 pbc="T T T"
Si      -1.38064267       1.54575811       1.16615626       0.00000000
Si       1.18565137       1.34107426      -1.66868101       0.00000000
Si      -1.37075464      -1.23947353      -1.63637209       0.00000000
Si       1.35391925      -0.88570360       1.95327380       0.00000000
Si      -2.71878473       2.68403816      -0.43948296       0.00000000
Si      -0.04035033       3.22884093       2.12310720       0.00000000
Si      -2.73382040      -2.73018773      -0.41595903       0.00000000
Si       2.68708602       2.79107976      -0.58088918       0.00000000
Si       2.56215964       0.03961728      -3.11318426       0.00000000
Si       2.96919462       0.75836467       2.63059356       0.00000000
