10
Lattice="16.2900001489832 0.0 0.0 0.0 16.2900001489832 0.0 0.0 0.0 29.18601123518865" Properties=species:S:1:pos:R:3:initial_magmoms:R:1 pbc="T T T"
Si      -1.93077227      -0.52639506       1.20657889       0.00000000
Si      -0.82018522       1.08782992      -1.93736743       0.00000000
Si       0.91476496       1.71411527       1.40895469       0.00000000
Si       0.47961018      -2.25473150      -0.69664090       0.00000000
H       -2.73199592       1.73550404      -0.60196148       0.00000000
H        2.47560761       1.93225466      -1.44502860       0.00000000
Si       0.00260640       3.68918004       0.50947101       0.00000000
Si      -2.07182738      -0.61416559      -3.05895665       0.00000000
Si      -3.56566926       1.11889495       0.53331598       0.00000000
Si      -0.50780817      -2.41974920      -2.93205587       0.00000000
