10
Lattice="16.2900001489832 0.0 0.0 0.0 16.2900001489832 0.0 0.0 0.0 29.18601123518865" Properties=species:S:1:pos:R:3:initial_magmoms:R:1 pbc="T T T"
Si      -0.45180315      -1.27376398      -1.96357646       0.00000000
Si       2.14040991      -0.32531130       1.09657681       0.00000000
Si      -1.64234152      -1.03801510       1.46169381       0.00000000
Si      -0.20626398       2.34532019      -0.87867405       0.00000000
Si       1.40476816      -0.92615167      -3.36424233       0.00000000
Si      -2.43566453      -0.22973787      -2.86886816       0.00000000
Si      -2.72647361       0.79037452       2.54475751       0.00000000
Si      -1.73949509       2.07303284      -2.74795052       0.00000000
Si       1.85394863       2.91089271      -1.95797275       0.00000000
Si       2.89818651       1.72664228       2.19032259       0.00000000
