10
Lattice="16.2900001489832 0.0 0.0 0.0 16.2900001489832 0.0 0.0 0.0 29.18601123518865" Properties=species:S:1:pos:R:3:initial_magmoms:R:1 pbc="T T T"
Si       1.32738740       0.21678732       0.72031076       0.00000000
Si       2.67890681      -1.42371343      -0.25505655       0.00000000
Si       2.01729172       2.28161000      -0.20485661       0.00000000
Si       0.78483592      -0.03301983       3.01114997       0.00000000
Si       1.12050245       1.83197342      -2.43361717       0.00000000
Si      -1.56084265      -0.21813939       2.85398329       0.00000000
Si      -2.06122259      -0.74173258      -2.50456837       0.00000000
Si      -3.29579283      -0.84442474      -0.49233882       0.00000000
Si      -2.47560761      -1.93225466       1.44502860       0.00000000
Si       2.57199391      -0.22763646      -2.44030077       0.00000000
