10
Lattice="16.2900001489832 0.0 0.0 0.0 16.2900001489832 0.0 0.0 0.0 29.18601123518865" Properties=species:S:1:pos:R:3:initial_magmoms:R:1 pbc="T T T"
Si       0.17594829      -2.03651066      -1.12161841       0.00000000
Si       2.05758992       1.06875433      -0.43542610       0.00000000
Si      -0.44504280      -0.83227240       2.25167158       0.00000000
Si      -1.64709820       1.51848865      -1.01605261       0.00000000
Si      -2.43263459       0.34992549       2.44152658       0.00000000
Si      -1.70108327      -3.12157128      -0.20558626       0.00000000
Si      -0.36212670       3.48641027      -0.94691095       0.00000000
Si       1.65050282       2.86651223      -1.86545309       0.00000000
Si       3.02277243       1.88498108       1.51816875       0.00000000
Si       0.73031329      -1.82938331      -3.40361426       0.00000000
