10
Lattice="16.2900001489832 0.0 0.0 0.0 16.2900001489832 0.0 0.0 0.0 29.18601123518865" Properties=species:S:1:pos:R:3:initial_magmoms:R:1 pbc="T T T"
Si      -1.98759179       1.18219789       0.18985500       0.00000000
Si      -0.69616945      -2.30277071      -0.12091764       0.00000000
Si       1.53323110       0.27228735       1.86927646       0.00000000
Si       0.44504280       0.83227240      -2.25167158       0.00000000
Si      -1.25604046      -2.28929888      -2.45725784       0.00000000
Si       0.62099110      -1.20423826      -3.37328999       0.00000000
Si       1.28769193      -3.34679682       0.78437405       0.00000000
Si       3.59344371       0.83785987       0.78997777       0.00000000
Si      -3.08640117       0.60201325       2.15284775       0.00000000
Si       1.73949509      -2.07303284       2.74795052       0.00000000
