10
Lattice="16.2900001489832 0.0 0.0 0.0 16.2900001489832 0.0 0.0 0.0 29.18601123518865" Properties=species:S:1:pos:R:3:initial_magmoms:R:1 pbc="T T T"
H        1.32343056       0.22411782       0.70706031       0.00000000
Si      -0.55468428       1.98006581      -1.14520071       0.00000000
Si      -0.99533693      -0.17013276       2.14914112       0.00000000
Si       0.46731449      -1.71875792      -1.57837949       0.00000000
H        2.09264437       1.79232356      -1.19189833       0.00000000
H       -2.10320355      -1.23725809       2.09692735       0.00000000
H        2.81613215       1.73196911      -0.93033329       0.00000000
Si       2.44556722      -0.71899174      -2.53956240       0.00000000
Si       0.93804174      -0.77788009       3.39409962       0.00000000
Si      -2.84762398       2.30646854      -0.68464545       0.00000000
