10
Lattice="16.2900001489832 0.0 0.0 0.0 16.2900001489832 0.0 0.0 0.0 29.18601123518865" Properties=species:S:1:pos:R:3:initial_magmoms:R:1 pbc="T T T"
Si      -1.27278658      -1.32442588      -1.46239428       0.00000000
Si       1.38787543       1.25928217      -1.42602267       0.00000000
Si      -1.38381922       1.29345859       1.40910062       0.00000000
Si       1.43645221      -1.42887736       1.24653454       0.00000000
Si       2.36521028      -0.43662087      -2.78398357       0.00000000
Si       0.35051193      -2.37159596      -2.81669817       0.00000000
Si      -2.66226821       2.64442088      -0.08898815       0.00000000
Si       0.04259835       2.65479761       2.70793649       0.00000000
Si       2.79629256       2.57305439      -0.04982052       0.00000000
Si      -2.64880941      -2.76522753      -0.13238775       0.00000000
