10
Lattice="16.2900001489832 0.0 0.0 0.0 16.2900001489832 0.0 0.0 0.0 29.18601123518865" Properties=species:S:1:pos:R:3:initial_magmoms:R:1 pbc="T T T"
Si       2.32171109      -0.34700958      -0.31628880       0.00000000
Si      -0.27468850       1.92881747      -1.36164417       0.00000000
Si      -1.19808553      -1.89297947      -0.97746870       0.00000000
Si      -0.47441042       0.27350910       2.41379987       0.00000000
H       -2.56439300       1.58371381      -0.03846716       0.00000000
H        1.11002830       2.15098049      -1.95120160       0.00000000
H        2.17291823       0.08576685       2.36710226       0.00000000
Si       2.52584109      -2.42554844       1.01943819       0.00000000
Si      -3.52015989      -1.51527952      -0.50033579       0.00000000
H        2.89640601       0.02541240       2.62866729       0.00000000
