10
Lattice="16.2900001489832 0.0 0.0 0.0 16.2900001489832 0.0 0.0 0.0 29.18601123518865" Properties=species:S:1:pos:R:3:initial_magmoms:R:1 pbc="T T T"
Si       1.42280119      -1.32553360      -1.27840566       0.00000000
Si      -1.39797360       1.33191765      -1.29988657       0.00000000
Si       0.90117910       1.67672972       1.36024324       0.00000000
Si      -0.88164739      -1.51167943       1.58252390       0.00000000
Si       0.98093494       0.12232389       3.10953601       0.00000000
Si      -2.64957520       2.55366929       0.26804433       0.00000000
Si      -0.03468141      -2.70425405      -2.51676812       0.00000000
Si      -2.59561490      -2.63218709       0.22817624       0.00000000
Si       0.06450840       2.69449634      -2.59737988       0.00000000
Si       2.61876413      -2.74095543       0.14120192       0.00000000
