10
Lattice="16.2900001489832 0.0 0.0 0.0 16.2900001489832 0.0 0.0 0.0 29.18601123518865" Properties=species:S:1:pos:R:3:initial_magmoms:R:1 pbc="T T T"
Si      -1.73796383       0.50956749       1.41808991       0.00000000
Si       1.72623503       1.35329176       0.96856697       0.00000000
Si       0.56308015      -2.32614686       0.42885925       0.00000000
Si      -0.34639056       0.70522669      -2.36252005       0.00000000
H        0.03251484      -1.51102783       2.56323225       0.00000000
H       -2.12605679      -1.68339233      -1.74777510       0.00000000
Si       2.11048355      -2.23717088      -1.35344290       0.00000000
Si       1.64471986      -0.43932501      -2.96553223       0.00000000
Si      -0.99901684      -0.69416578       3.28018662       0.00000000
Si      -0.14647968       3.01762479      -1.98572865       0.00000000
