10
Lattice="16.2900001489832 0.0 0.0 0.0 16.2900001489832 0.0 0.0 0.0 29.18601123518865" Properties=species:S:1:pos:R:3:initial_magmoms:R:1 pbc="T T T"
Si      -1.89900840      -0.89425585       1.11351988       0.00000000
Si      -0.45480051       0.28367406      -2.32348026       0.00000000
Si       1.89190270      -1.51902622       0.06605115       0.00000000
Si       0.30297608       2.33562764      -1.22973449       0.00000000
Si       1.05650262       2.18450531       1.11650852       0.00000000
Si       2.14016230       0.50632578       2.49587736       0.00000000
Si      -0.63399214      -2.30539340       2.50374882       0.00000000
Si       0.84217672      -3.45940959       1.05337918       0.00000000
Si       1.37622645      -0.95138488      -3.31609650       0.00000000
Si      -3.23941477      -2.07598133      -0.46252181       0.00000000
