10
Lattice="16.2900001489832 0.0 0.0 0.0 16.2900001489832 0.0 0.0 0.0 29.18601123518865" Properties=species:S:1:pos:R:3:initial_magmoms:R:1 pbc="T T T"
Si      -1.38877301       1.26949600      -1.37191764       0.00000000
Si      -1.24522227      -1.48662541       1.30318459       0.00000000
Si       1.38412873      -1.42386004      -1.30187122       0.00000000
Si       0.78687217       1.86849560       1.27942717       0.00000000
Si      -2.47968174       0.00666261       2.60050279       0.00000000
Si       2.60983721       2.60649776      -0.06418004       0.00000000
Si      -2.60454182       2.71526609       0.02279427       0.00000000
Si       0.24441516      -2.65481390       2.66809759       0.00000000
Si       1.17131617       1.05772600       3.43169120       0.00000000
Si      -0.04360833       2.64319913      -2.72215008       0.00000000
