10
Lattice="16.2900001489832 0.0 0.0 0.0 16.2900001489832 0.0 0.0 0.0 29.18601123518865" Properties=species:S:1:pos:R:3:initial_magmoms:R:1 pbc="T T T"
Si      -0.87045616       1.65266939       1.47030369       0.00000000
Si       1.78900040      -0.98290603       1.27478660       0.00000000
Si      -2.19853100      -0.88384654      -0.45235399       0.00000000
Si       0.64309663       0.64324324      -2.24857786       0.00000000
H       -2.23681250       1.92560834       0.86221314       0.00000000
Si       1.58345317       2.72981681      -1.81539908       0.00000000
Si      -3.16933356       0.81836074      -1.74681196       0.00000000
Si      -1.39960423       1.14943870      -3.32174750       0.00000000
Si       2.65233782      -2.75149506       0.01430115       0.00000000
Si       3.59611527       0.65912599       1.29647181       0.00000000
