10
Lattice="16.290000149 0.0 0.0 0.0 16.290000149 0.0 0.0 0.0 29.1751946751" Properties=species:S:1:pos:R:3:initial_magmoms:R:1 pbc="T T T"
Si      -1.34361550      -1.37779192       1.31422582       0.00000000
Si       1.30455208      -1.34555401      -1.43191855       0.00000000
Si       1.22868955       1.43320236       1.42713382       0.00000000
Si      -1.40006035       1.34102051      -1.36108118       0.00000000
Si       0.20134440      -2.70277166       2.49891377       0.00000000
Si       2.63917550       2.71687880       0.04224568       0.00000000
Si      -2.70801704      -0.00700470       2.65815199       0.00000000
Si      -0.29292678       2.74950768       2.62503814       0.00000000
Si       2.65935881       0.00918756      -2.76665454       0.00000000
Si      -0.06584418       2.70550838      -2.73068152       0.00000000
