10
Lattice="16.290000149 0.0 0.0 0.0 16.290000149 0.0 0.0 0.0 29.1751946751" Properties=species:S:1:pos:R:3:initial_magmoms:R:1 pbc="T T T"
Si      -1.33783255       1.15427683       1.55698386       0.00000000
Si      -1.30795669      -1.44686152      -1.37063898       0.00000000
Si       1.42742755      -1.36702423       1.33450258       0.00000000
Si       0.83419462       1.99728434      -1.09124827       0.00000000
H        1.91089847       0.28132830      -1.88067973       0.00000000
Si      -0.91111600       3.53991477      -0.63902137       0.00000000
Si      -2.74401795       2.51783129       0.30244174       0.00000000
Si      -2.70811478      -0.02375082      -2.59494685       0.00000000
Si       0.08408898       2.61410519       2.78224576       0.00000000
Si      -2.63557541      -2.82885627       0.00479057       0.00000000
