10
Lattice="16.290000149 0.0 0.0 0.0 16.290000149 0.0 0.0 0.0 29.1751946751" Properties=species:S:1:pos:R:3:initial_magmoms:R:1 pbc="T T T"
Si       1.35542575       1.36813195       1.33765350       0.00000000
Si      -1.32825566       1.36083403      -1.37432672       0.00000000
Si       1.38419389      -1.35496800      -1.33461928       0.00000000
Si      -1.34723025      -1.35387657       1.37631063       0.00000000
Si       2.71036280       0.00048870       2.67361484       0.00000000
Si      -2.69834078      -0.00827532      -2.69952241       0.00000000
Si       0.05866029      -2.69312798       2.70842085       0.00000000
Si       0.02749752      -2.71767701      -2.68510987       0.00000000
Si      -2.69345378       2.71230131      -0.02427376       0.00000000
Si      -0.02171457       2.71360451       2.69651737       0.00000000
