10
Lattice="16.290000149 0.0 0.0 0.0 16.290000149 0.0 0.0 0.0 29.1751946751" Properties=species:S:1:pos:R:3:initial_magmoms:R:1 pbc="T T T"
Si       0.34811730      -0.88169626      -2.13527415       0.00000000
Si      -1.81931609       1.46181574       0.16419800       0.00000000
Si       1.62005680       1.68842594       0.06981624       0.00000000
Si       0.22441104      -1.51576822       1.83617005       0.00000000
H       -0.90658738      -1.45490878       2.84271427       0.00000000
Si       1.05816583       2.72385092       2.07937447       0.00000000
Si       2.28802826      -0.82127665       2.73689584       0.00000000
Si       1.40323690       0.88063741      -3.31783231       0.00000000
Si      -3.64830843       0.16886214       0.79942951       0.00000000
H       -1.81767080       0.32948154       3.28854042       0.00000000
