10
Lattice="16.290000149 0.0 0.0 0.0 16.290000149 0.0 0.0 0.0 29.1751946751" Properties=species:S:1:pos:R:3:initial_magmoms:R:1 pbc="T T T"
H       -0.17860356       1.38731180       0.61092858       0.00000000
Si       0.83305432      -1.24441918       1.71345043       0.00000000
Si       1.89602570       0.01674123      -1.33852876       0.00000000
Si      -1.89987014      -0.54822204      -1.28615928       0.00000000
Si       0.64716913       1.12518941      -2.94342704       0.00000000
Si      -2.62518239       1.64272271      -0.88062408       0.00000000
Si      -0.68605336       2.66970948      -1.78342130       0.00000000
Si       1.87242149       0.61022015       2.66458220       0.00000000
Si       2.32745006      -2.27415895      -1.03746992       0.00000000
Si      -0.99984763      -2.26650265       2.65491354       0.00000000
