10
Lattice="16.290000149 0.0 0.0 0.0 16.290000149 0.0 0.0 0.0 29.1751946751" Properties=species:S:1:pos:R:3:initial_magmoms:R:1 pbc="T T T"
Si      -1.43324308       1.31968549      -1.28297919       0.00000000
Si      -1.38013768      -1.31766553       1.36367777       0.00000000
Si       1.33530760       1.40434462       1.33861628       0.00000000
Si       1.34601013      -1.27933516      -1.46091870       0.00000000
Si      -0.07749153       2.66009186      -2.59830491       0.00000000
Si       2.68591151      -2.61571790      -0.03909476       0.00000000
Si      -0.02432097      -2.68798034       2.70281921       0.00000000
Si      -2.75364534      -2.64420911      -0.00014588       0.00000000
Si       2.69817788       0.06470388       2.70273168       0.00000000
Si      -2.74940994       0.06128298       2.68645193       0.00000000
