10
Lattice="16.290000149 0.0 0.0 0.0 16.290000149 0.0 0.0 0.0 29.1751946751" Properties=species:S:1:pos:R:3:initial_magmoms:R:1 pbc="T T T"
H        0.05755257       1.59536116      -0.23687341       0.00000000
Si       2.21658032       0.12404835       0.87531419       0.00000000
Si      -1.30368708       0.51986277       1.94400157       0.00000000
Si      -1.34889020       0.02086749      -2.02116996       0.00000000
Si      -0.53885691      -1.77303620       1.80909547       0.00000000
Si      -0.65370142       2.73105110       0.91467153       0.00000000
H        0.20129553      -1.39313710      -2.59948067       0.00000000
H        1.96599125       0.94047058       2.11951954       0.00000000
H       -2.45748825       1.02478762      -1.70409395       0.00000000
H        0.73899586      -1.69631030       2.63201101       0.00000000
