10
Lattice="16.290000149 0.0 0.0 0.0 16.290000149 0.0 0.0 0.0 29.1751946751" Properties=species:S:1:pos:R:3:initial_magmoms:R:1 pbc="T T T"
H       -0.90375292       0.73935424       0.97774830       0.00000000
Si       1.14818437       1.64678869      -1.17506014       0.00000000
Si       1.40165694      -1.17043651       1.46217323       0.00000000
Si      -1.59114205      -1.13114503      -1.34191308       0.00000000
Si      -1.98045677       2.45531027       1.76717976       0.00000000
Si      -0.62081191       2.79666723      -2.21142141       0.00000000
Si       2.61789914       0.44531973      -2.51221766       0.00000000
Si      -0.05690097      -2.34949043       2.87882149       0.00000000
Si      -2.23137164       2.96820093      -0.53151370       0.00000000
Si       2.86230127      -2.45039069       0.11745933       0.00000000
