10
Lattice="16.290000149 0.0 0.0 0.0 16.290000149 0.0 0.0 0.0 29.1751946751" Properties=species:S:1:pos:R:3:initial_magmoms:R:1 pbc="T T T"
Si       0.91217485       0.07195293      -1.21400903       0.00000000
H       -1.27350334      -1.76360429      -0.42330290       0.00000000
H        1.90179236       0.42428934       1.24405948       0.00000000
Si      -1.80255368      -2.01331370       0.96575729       0.00000000
Si       0.02080233       1.49579668      -2.80326941       0.00000000
Si       1.19596294       2.94225421       0.25601233       0.00000000
Si       1.25066476      -2.04933089      -2.14574804       0.00000000
Si       2.80043022       1.41144706      -0.82533708       0.00000000
Si      -2.65010609      -0.13693374       2.07887850       0.00000000
H       -2.85503430      -0.89857270      -1.59410346       0.00000000
