10
Lattice="16.290000149 0.0 0.0 0.0 16.290000149 0.0 0.0 0.0 29.1751946751" Properties=species:S:1:pos:R:3:initial_magmoms:R:1 pbc="T T T"
Si       0.80549164      -0.98016931      -1.94718167       0.00000000
Si      -1.33125139      -1.33024141       1.40003007       0.00000000
Si       1.59114205       1.13114503       1.34191308       0.00000000
Si      -1.50553810       1.30873861      -1.29377401       0.00000000
H        1.25918443       0.30579588      -2.60321510       0.00000000
H        0.68738914       1.87049927       2.31966138       0.00000000
Si      -2.53698833       2.79669981       0.17776446       0.00000000
Si      -1.06605019      -1.69758092      -3.22000789       0.00000000
Si      -2.89321806      -2.45513108      -0.06780315       0.00000000
Si      -2.53146602       0.14230944       2.82970213       0.00000000
