10
Lattice="16.290000149 0.0 0.0 0.0 16.290000149 0.0 0.0 0.0 29.1751946751" Properties=species:S:1:pos:R:3:initial_magmoms:R:1 pbc="T T T"
Si      -1.14595264      -0.12911454       2.05971039       0.00000000
Si      -1.52849071       0.99414613      -1.50532334       0.00000000
Si       0.99618238      -1.76109563      -1.26985035       0.00000000
Si       1.53158581       1.84168226       0.42546186       0.00000000
H       -2.05509755      -2.80145649      -0.91108298       0.00000000
H        0.70310899      -2.96846157       1.91844410       0.00000000
Si       2.30316167      -0.46498176      -2.76122795       0.00000000
Si      -2.55867032       2.61769714      -0.18902609       0.00000000
Si      -0.23871366       2.42989608      -2.78786490       0.00000000
Si       0.41425470       0.65355481       3.65215087       0.00000000
