10
Lattice="16.290000149 0.0 0.0 0.0 16.290000149 0.0 0.0 0.0 29.1751946751" Properties=species:S:1:pos:R:3:initial_magmoms:R:1 pbc="T T T"
Si      -1.35891181       1.35804844      -1.30089276       0.00000000
Si       1.37798740       1.35641944       1.29791689       0.00000000
Si       1.35769006      -1.34737849      -1.33607804       0.00000000
Si      -1.34905636      -1.30554577       1.39229864       0.00000000
H       -0.46367856      -2.18660672       2.24091753       0.00000000
Si       2.60613938      -0.17842437       2.53284453       0.00000000
Si      -2.66914910      -0.06980265      -2.62655525       0.00000000
Si      -2.56015271       2.75864637       0.17513869       0.00000000
Si       2.59555088      -2.73629649       0.03845291       0.00000000
Si       0.01156590       2.61275312      -2.73467852       0.00000000
