10
Lattice="16.290000149 0.0 0.0 0.0 16.290000149 0.0 0.0 0.0 29.1751946751" Properties=species:S:1:pos:R:3:initial_magmoms:R:1 pbc="T T T"
Si       1.33392295       1.34024999      -1.32855376       0.00000000
Si      -1.33024141       1.41950084       1.28650938       0.00000000
Si       1.43376436      -1.34634571       1.26226480       0.00000000
Si      -1.36065484      -1.28291779      -1.40987086       0.00000000
Si       0.05409909      -2.69012411       2.59735088       0.00000000
Si      -2.67897197       0.04575698       2.62378361       0.00000000
Si       0.05545116       2.76973008       2.61155920       0.00000000
Si       2.78073561       0.04144013       2.60163963       0.00000000
Si      -2.71070489      -2.67821612      -0.09954576       0.00000000
Si      -0.04044807      -2.77183475      -2.61867795       0.00000000
