10
Lattice="16.290000149 0.0 0.0 0.0 16.290000149 0.0 0.0 0.0 29.1751946751" Properties=species:S:1:pos:R:3:initial_magmoms:R:1 pbc="T T T"
Si      -0.52905033      -0.24970941       1.38906019       0.00000000
H       -0.67044754      -0.91935874      -1.61662671       0.00000000
H       -1.58153095       0.86503159      -1.17080056       0.00000000
H        1.27350334       1.76360429       0.42330290       0.00000000
Si       0.46055088      -0.98021818      -2.62317093       0.00000000
Si       2.18567819       1.83555722      -0.79070613       0.00000000
Si       2.52416810      -0.28572660      -1.72244514       0.00000000
Si       1.16035300      -1.18141597       2.69759685       0.00000000
Si      -2.33404751      -1.83555722       1.27192179       0.00000000
Si      -1.37660275       1.62667054       2.50218140       0.00000000
