10
Lattice="16.290000149 0.0 0.0 0.0 16.290000149 0.0 0.0 0.0 29.1751946751" Properties=species:S:1:pos:R:3:initial_magmoms:R:1 pbc="T T T"
Si       0.84755242      -1.87637996      -1.11312120       0.00000000
Si       1.48758652       1.25090911       1.37523115       0.00000000
Si      -1.38854332       1.31761666      -1.42771733       0.00000000
Si      -1.31116582      -1.36612828       1.48810998       0.00000000
H        1.37660275      -1.62667054      -2.50218140       0.00000000
H        2.65010609       0.13693374      -2.07887850       0.00000000
Si       0.00550602       2.54892271       2.71533537       0.00000000
Si      -2.79777495       2.49292388       0.04472557       0.00000000
H       -0.20492820      -0.76163896      -3.67298196       0.00000000
Si       2.53695575      -2.80808652       0.19541545       0.00000000
