10
Lattice="16.290000149 0.0 0.0 0.0 16.290000149 0.0 0.0 0.0 29.1751946751" Properties=species:S:1:pos:R:3:initial_magmoms:R:1 pbc="T T T"
Si       1.35995437      -1.35310443       1.35276625       0.00000000
Si      -1.36246303       1.36265037       1.34585173       0.00000000
Si       1.34987086       1.38786729      -1.33531948       0.00000000
Si      -1.34697124      -1.38778584      -1.33937484       0.00000000
Si      -2.78073561      -0.04144013      -2.60163963       0.00000000
Si       0.00000000      -2.71674034       2.69491273       0.00000000
Si       2.79261102       0.05628358      -2.61821115       0.00000000
Si      -0.00239463       2.70623329       2.70926693       0.00000000
Si      -0.02713914       2.72786641      -2.69447510       0.00000000
Si      -2.72719037       0.01497866       2.69567129       0.00000000
