10
Lattice="16.290000149 0.0 0.0 0.0 16.290000149 0.0 0.0 0.0 29.1751946751" Properties=species:S:1:pos:R:3:initial_magmoms:R:1 pbc="T T T"
Si      -1.36472734      -1.34767171       1.34981956       0.00000000
Si      -1.36282141       1.36563958      -1.33593216       0.00000000
Si       1.36006840       1.34358292       1.36341520       0.00000000
Si       1.36246303      -1.36265037      -1.34585173       0.00000000
Si       0.00957852      -2.69443118       2.68633522       0.00000000
Si       2.71233389       0.02521692      -2.68117122       0.00000000
Si       0.00781920       2.72404640      -2.67396494       0.00000000
Si      -2.74851399       0.01541034      -2.66098198       0.00000000
Si      -0.00084708       2.69535971       2.71574382       0.00000000
Si      -2.71474481      -2.71762814      -0.00137123       0.00000000
