10
Lattice="16.290000149 0.0 0.0 0.0 16.290000149 0.0 0.0 0.0 29.1751946751" Properties=species:S:1:pos:R:3:initial_magmoms:R:1 pbc="T T T"
Si       1.18706860      -0.50885073       0.79826250       0.00000000
H       -0.80625727       0.75383605      -1.65262890       0.00000000
H        0.63229636       1.66333934      -1.10273483       0.00000000
H       -0.57076903       0.12900051       2.33136063       0.00000000
Si      -1.88494850       0.58476214       1.72667555       0.00000000
Si      -1.65051911      -0.18072126      -2.46221138       0.00000000
Si       2.52279974      -1.57985308      -0.81929782       0.00000000
Si      -1.61837893       2.61519662       0.53058009       0.00000000
Si       0.50419179      -2.37544040       2.21821923       0.00000000
Si      -2.85731490      -1.41289687       0.85141971       0.00000000
