10
Lattice="16.290000149 0.0 0.0 0.0 16.290000149 0.0 0.0 0.0 29.1751946751" Properties=species:S:1:pos:R:3:initial_magmoms:R:1 pbc="T T T"
Si      -1.31992984      -1.34131861      -1.39443718       0.00000000
Si       1.35526285       1.31473333      -1.39991628       0.00000000
Si      -1.37904625       1.35910729       1.33622392       0.00000000
Si       1.35229807      -1.36721971       1.35664655       0.00000000
Si       2.69873174       2.68410332      -0.03597301       0.00000000
Si      -2.69457291      -2.70158249      -0.03212189       0.00000000
Si      -0.01910817       2.71365338       2.69001130       0.00000000
Si       0.09941787      -2.72272691      -2.67920189       0.00000000
Si       2.69900867      -0.01026270       2.71933237       0.00000000
Si      -0.01822851       2.66431097      -2.76349778       0.00000000
