10
Lattice="16.290000149 0.0 0.0 0.0 16.290000149 0.0 0.0 0.0 29.1751946751" Properties=species:S:1:pos:R:3:initial_magmoms:R:1 pbc="T T T"
Si      -0.84426184      -0.93455731      -0.80958248       0.00000000
H        1.43855362       0.90950329       0.54989407       0.00000000
H        0.80625727      -0.75383605       1.65262890       0.00000000
Si       2.08515260       1.73558549      -0.52728329       0.00000000
Si      -1.09589347       2.74859544      -0.05767936       0.00000000
Si      -0.81212167       1.86136058       2.18320899       0.00000000
Si      -2.13975668       0.35914563      -2.23595774       0.00000000
Si       0.58567438      -2.37894275      -1.92985160       0.00000000
Si      -2.67511124      -1.75927115       0.35514964       0.00000000
Si       1.99332587      -1.26268678       2.45089140       0.00000000
