10
Lattice="16.290000149 0.0 0.0 0.0 16.290000149 0.0 0.0 0.0 29.1751946751" Properties=species:S:1:pos:R:3:initial_magmoms:R:1 pbc="T T T"
Si      -1.44578638       1.19099449       1.35835388       0.00000000
Si      -1.36448299      -1.34104168      -1.33908309       0.00000000
Si       1.27941661      -1.49960854       1.33273369       0.00000000
Si       1.31116582       1.36612828      -1.48810998       0.00000000
Si       2.15871824      -0.51025167      -2.60123118       0.00000000
Si       0.35372106      -2.09609948      -2.71836959       0.00000000
Si      -0.01904301       2.55116063       2.63620057       0.00000000
Si      -2.80372894       2.43423101      -0.09589886       0.00000000
Si       2.69122205      -0.20261502       2.67806114       0.00000000
Si      -2.79200014      -0.27130995       2.58992871       0.00000000
