10
Lattice="16.290000149 0.0 0.0 0.0 16.290000149 0.0 0.0 0.0 29.1751946751" Properties=species:S:1:pos:R:3:initial_magmoms:R:1 pbc="T T T"
Si      -1.35575155      -1.34040637       1.31532572       0.00000000
Si      -1.40618539       1.36355446      -1.25454212       0.00000000
Si       1.33783255      -1.15427683      -1.55698386       0.00000000
Si       1.42192153       1.45982836       1.22526190       0.00000000
Si       0.42671655       2.38563794      -2.19600523       0.00000000
Si       2.17202717       0.84300751      -2.64823213       0.00000000
Si       0.07749153      -2.66009186       2.59830491       0.00000000
Si      -2.69172704       0.10086768       2.60457758       0.00000000
Si      -2.66025476      -2.63549396      -0.16061528       0.00000000
Si       2.76526011      -2.52130106      -0.22248128       0.00000000
