10
Lattice="16.290000149 0.0 0.0 0.0 16.290000149 0.0 0.0 0.0 29.1751946751" Properties=species:S:1:pos:R:3:initial_magmoms:R:1 pbc="T T T"
Si      -1.61055973       0.17153370       1.67990771       0.00000000
Si       0.83129500       1.92695715      -1.02130686       0.00000000
Si       1.76899628      -1.14987853       1.03636127       0.00000000
Si      -1.56020734      -0.78266935      -1.59244048       0.00000000
H       -0.21984984       3.03720374      -1.00047578       0.00000000
Si      -2.04198410       2.46243389       1.37884888       0.00000000
Si       1.11733111       1.18812745      -3.22668901       0.00000000
Si       0.62081191      -2.79666723       2.21142141       0.00000000
Si      -2.47586825      -2.61907364      -0.42426568       0.00000000
Si      -0.41425470      -0.65355481      -3.65215087       0.00000000
