10
Lattice="16.290000149 0.0 0.0 0.0 16.290000149 0.0 0.0 0.0 29.1751946751" Properties=species:S:1:pos:R:3:initial_magmoms:R:1 pbc="T T T"
Si       1.37966527       1.34377840      -1.33508608       0.00000000
Si       1.36915822      -1.34822557       1.34144628       0.00000000
Si      -1.35057133       1.37658646       1.34876925       0.00000000
Si      -1.38008881      -1.34439742      -1.35690913       0.00000000
Si      -0.05409909       2.69012411      -2.59735088       0.00000000
Si      -0.00576666      -2.69070077       2.68400121       0.00000000
Si      -2.72735328       0.02083491       2.68096699       0.00000000
Si       2.72443736      -2.70101234      -0.02456551       0.00000000
Si       2.72663651       0.01482390       2.69920149       0.00000000
Si      -0.04411332      -2.78567148      -2.64616098       0.00000000
