10
Lattice="16.290000149 0.0 0.0 0.0 16.290000149 0.0 0.0 0.0 29.1751946751" Properties=species:S:1:pos:R:3:initial_magmoms:R:1 pbc="T T T"
Si       1.35995437       1.36363591      -1.34214648       0.00000000
Si      -1.35288451       1.38495952       1.33727422       0.00000000
Si       1.38712609      -1.34291503       1.34681451       0.00000000
Si      -1.35747829      -1.36304947      -1.35775521       0.00000000
Si      -2.70769124       0.03021795       2.67201020       0.00000000
Si       0.04966821      -2.78984172       2.60394448       0.00000000
Si       2.69182478       2.71846056       0.04131208       0.00000000
Si       0.00000000       2.71674034      -2.69491273       0.00000000
Si       2.71085150       0.00296478      -2.70232323       0.00000000
Si      -2.72663651      -0.01482390      -2.69920149       0.00000000
