10
Lattice="16.290000149 0.0 0.0 0.0 16.290000149 0.0 0.0 0.0 29.1751946751" Properties=species:S:1:pos:R:3:initial_magmoms:R:1 pbc="T T T"
Si      -1.36743148      -1.35006634       1.35048767       0.00000000
Si       1.30450321       1.29508759       1.47594101       0.00000000
Si      -1.37156914       1.41032305      -1.30552286       0.00000000
Si       1.36251190      -1.34763913      -1.39157801       0.00000000
Si       2.66025476       2.63549396       0.16061528       0.00000000
Si       2.71142165      -2.70998813      -0.01451758       0.00000000
Si      -0.01589904      -2.66880701       2.75877432       0.00000000
Si      -2.71090037      -2.71943633      -0.01345560       0.00000000
Si      -2.73007370       0.02342502       2.70048228       0.00000000
Si      -2.78337459       0.11332953      -2.65085031       0.00000000
