10
Lattice="16.290000149 0.0 0.0 0.0 16.290000149 0.0 0.0 0.0 29.1751946751" Properties=species:S:1:pos:R:3:initial_magmoms:R:1 pbc="T T T"
H        0.88537780      -0.88106095       0.84861889       0.00000000
Si       1.34905636       1.30554577      -1.39229864       0.00000000
Si      -1.16701561       1.40768407       1.45817623       0.00000000
Si      -1.31131243      -1.47015622      -1.28009084       0.00000000
H       -1.12684447      -1.24276411       2.21407635       0.00000000
Si      -2.58190475       2.63691119       0.08288673       0.00000000
Si      -0.50266053      -2.54593480       2.65896889       0.00000000
Si      -2.66043721      -0.13348026      -2.65500107       0.00000000
Si      -0.00985545       2.66359421      -2.69319140       0.00000000
Si       2.72704376       2.66196521      -0.09438175       0.00000000
