10
Lattice="16.290000149 0.0 0.0 0.0 16.290000149 0.0 0.0 0.0 29.1751946751" Properties=species:S:1:pos:R:3:initial_magmoms:R:1 pbc="T T T"
Si      -1.35519769      -1.34394130       1.37598971       0.00000000
Si       1.33478632       1.35130438       1.39434090       0.00000000
Si      -1.37650501       1.34662915      -1.36006005       0.00000000
Si       1.36264222      -1.37349136      -1.34999461       0.00000000
Si       2.71417466      -2.69223203       0.05829204       0.00000000
Si       2.69860142       2.71293662       0.06471058       0.00000000
Si      -2.71513577      -2.69848739       0.02220232       0.00000000
Si      -0.02272455       2.74378989      -2.68043600       0.00000000
Si       2.73007370      -0.02342502      -2.70048228       0.00000000
Si      -2.72807004       2.71619462      -0.00087526       0.00000000
