10
Lattice="16.290000149 0.0 0.0 0.0 16.290000149 0.0 0.0 0.0 29.1751946751" Properties=species:S:1:pos:R:3:initial_magmoms:R:1 pbc="T T T"
Si      -0.97471216       1.45420831       1.50946622       0.00000000
Si       1.56833605      -1.27985644       1.12123191       0.00000000
Si       1.61560963       1.02641662      -1.39699585       0.00000000
Si      -1.89633521      -1.50353443      -0.32682053       0.00000000
H       -0.37421388      -2.35545257      -2.03225654       0.00000000
H        0.77344921      -0.70972273      -3.16016956       0.00000000
H       -2.46593135      -1.62593749      -1.73668264       0.00000000
Si       0.17731665      -2.71396289       2.30060998       0.00000000
Si      -2.66411549       2.38591487       0.20092957       0.00000000
H       -2.13506516       2.63562428      -1.18813063       0.00000000
