10
Lattice="16.290000149 0.0 0.0 0.0 16.290000149 0.0 0.0 0.0 29.1751946751" Properties=species:S:1:pos:R:3:initial_magmoms:R:1 pbc="T T T"
Si      -0.11940570       2.30488027       0.23567722       0.00000000
Si       1.60210522       0.07426611      -1.79080262       0.00000000
Si       0.28377180      -0.88723486       2.24088835       0.00000000
Si      -2.12683871      -0.96969484      -0.67992791       0.00000000
H        1.09589347      -2.74859544       0.05767936       0.00000000
H        2.53444709      -1.83909215       0.60757343       0.00000000
Si      -1.86781142       1.98385323       1.72720070       0.00000000
Si      -1.91001881      -0.16190631       2.70772064       0.00000000
Si       3.18104607      -1.01300995      -0.46960393       0.00000000
Si      -1.04386321      -2.38944980      -2.17827838       0.00000000
