10
Lattice="16.290000149 0.0 0.0 0.0 16.290000149 0.0 0.0 0.0 29.1751946751" Properties=species:S:1:pos:R:3:initial_magmoms:R:1 pbc="T T T"
Si      -1.33187041      -1.35482465      -1.38345856       0.00000000
Si       1.33216363      -1.36627652       1.37222611       0.00000000
Si      -1.37047771       1.33994862       1.36595344       0.00000000
Si       1.35167905       1.35143307      -1.37339311       0.00000000
Si      -2.69421941       2.70451307      -0.02695788       0.00000000
Si       0.00311139       2.72358866       2.67556958       0.00000000
Si       2.70278958       0.00583182       2.70243993       0.00000000
Si       2.70190015      -2.70616161      -0.00808153       0.00000000
Si      -2.69182478      -2.71846056      -0.04131208       0.00000000
Si      -2.69182478      -0.00172022      -2.73622481       0.00000000
