10
Lattice="16.290000149 0.0 0.0 0.0 16.290000149 0.0 0.0 0.0 29.1751946751" Properties=species:S:1:pos:R:3:initial_magmoms:R:1 pbc="T T T"
Si       1.17040393       0.54768609       1.05620040       0.00000000
Si      -1.29907864      -0.54376020      -0.92672088       0.00000000
Si      -0.06553467      -2.39379923      -1.59705016       0.00000000
Si      -0.36828432       1.81949528       2.25282101       0.00000000
Si       2.84099395       1.33017625      -0.39112266       0.00000000
Si      -3.08708535      -1.12585078       0.51978527       0.00000000
Si       2.31344066      -0.95434966       2.43633357       0.00000000
Si      -2.33070806       0.79312753      -2.53932142       0.00000000
Si      -1.83803330       3.02909295       0.79694962       0.00000000
H       -0.34160130       0.69884101      -3.60675427       0.00000000
