10
Lattice="16.290000149 0.0 0.0 0.0 16.290000149 0.0 0.0 0.0 29.1751946751" Properties=species:S:1:pos:R:3:initial_magmoms:R:1 pbc="T T T"
Si      -1.43498611       1.32134707       1.28233733       0.00000000
Si      -1.37728693      -1.34012944      -1.33260619       0.00000000
Si       1.34915410       1.35796699      -1.35349563       0.00000000
Si       1.35597961      -1.33488406       1.37826537       0.00000000
Si      -0.00834048       2.71104698       2.46107355       0.00000000
Si       0.00125433      -2.70583418      -2.64522738       0.00000000
Si      -2.72772794       0.03658734      -2.67507360       0.00000000
Si       2.72820036       0.01127268      -2.67545288       0.00000000
Si      -0.01282023       2.75227698      -2.65861879       0.00000000
Si       0.01254330      -2.66636351       2.75171684       0.00000000
