10
Lattice="16.290000149 0.0 0.0 0.0 16.290000149 0.0 0.0 0.0 29.1751946751" Properties=species:S:1:pos:R:3:initial_magmoms:R:1 pbc="T T T"
H       -1.18706860       0.50885073      -0.79826250       0.00000000
Si       1.33573114      -1.07100235      -1.61756032       0.00000000
H       -1.75783763       0.63785125       1.53309813       0.00000000
Si       1.29344230       1.67821211       1.17433076       0.00000000
Si      -0.68287681      -1.86658967       1.41995672       0.00000000
H       -0.55477225       2.17219007      -1.90099733       0.00000000
H        1.49571523      -1.05994144       2.55253778       0.00000000
Si      -3.07201710       1.09361287       0.92841304       0.00000000
H       -1.99332587       1.26268678      -2.45089140       0.00000000
Si       2.54277128       0.03820005       2.33891701       0.00000000
