10
Lattice="16.290000149 0.0 0.0 0.0 16.290000149 0.0 0.0 0.0 29.1751946751" Properties=species:S:1:pos:R:3:initial_magmoms:R:1 pbc="T T T"
Si      -1.34504902      -1.34749252       1.36860838       0.00000000
Si       1.32543586      -1.37086867      -1.37152590       0.00000000
Si      -1.35980776       1.32634810      -1.38964370       0.00000000
Si       1.34372953       1.32713002       1.40674036       0.00000000
Si       2.70027929       2.67488318       0.01552120       0.00000000
Si       2.63011826      -2.75056653       0.00408453       0.00000000
Si      -2.73310364       2.68439654      -0.06672367       0.00000000
Si      -2.73325026       0.00496845       2.68712296       0.00000000
Si       2.67889052      -0.02244762      -2.74523994       0.00000000
Si      -0.00522909       2.70075170      -2.73237368       0.00000000
