10
Lattice="16.290000149 0.0 0.0 0.0 16.290000149 0.0 0.0 0.0 29.1751946751" Properties=species:S:1:pos:R:3:initial_magmoms:R:1 pbc="T T T"
Si       1.34343631       1.33147945      -1.37345146       0.00000000
Si      -1.43870023       1.37052658       1.23449001       0.00000000
Si       1.34328970      -1.34794864       1.38039516       0.00000000
Si      -1.38017026      -1.35123922      -1.34246741       0.00000000
Si      -0.15736140      -2.70995555       2.54206389       0.00000000
Si       2.70454727       2.63932211       0.01546285       0.00000000
Si      -0.01137042      -2.73800694      -2.65514694       0.00000000
Si       2.71673219      -0.02656899      -2.69637149       0.00000000
Si      -2.81569395       0.05216058       2.59329553       0.00000000
Si      -0.01254330       2.66636351      -2.75171684       0.00000000
