10
Lattice="16.290000149 0.0 0.0 0.0 16.290000149 0.0 0.0 0.0 29.1751946751" Properties=species:S:1:pos:R:3:initial_magmoms:R:1 pbc="T T T"
Si      -1.42993621       1.44438544       1.12026913       0.00000000
Si      -1.36111096      -1.30784266      -1.38891432       0.00000000
Si       1.34882830       1.39098682      -1.34585173       0.00000000
Si       1.33255459      -1.31580847       1.44236327       0.00000000
H       -0.58567438       2.37894275       1.92985160       0.00000000
Si      -2.70454727      -2.63932211      -0.01546285       0.00000000
Si       0.01218492      -2.66589110      -2.71183435       0.00000000
Si       2.71572221      -2.66510918       0.08454971       0.00000000
Si       2.73240317       0.04815324      -2.68236740       0.00000000
Si      -2.72543105       2.73808839      -0.30610614       0.00000000
