10
Lattice="16.290000149 0.0 0.0 0.0 16.290000149 0.0 0.0 0.0 29.1751946751" Properties=species:S:1:pos:R:3:initial_magmoms:R:1 pbc="T T T"
Si      -1.37854126       1.36570474       1.31262118       0.00000000
Si      -1.37818288      -1.33558453      -1.34465555       0.00000000
Si       1.35650089       1.35547462      -1.35775521       0.00000000
Si       1.35501850      -1.35161389       1.36849168       0.00000000
Si      -0.00125433       2.70583418       2.64522738       0.00000000
Si      -0.00695583      -2.68133402      -2.68318430       0.00000000
Si      -2.73264752       0.01457955       2.67495690       0.00000000
Si       2.71593398      -2.70339068       0.01616306       0.00000000
Si       0.00068418       2.72578943      -2.69689665       0.00000000
Si       2.72802116       0.01290168       2.70057272       0.00000000
