10
Lattice="16.290000149 0.0 0.0 0.0 16.290000149 0.0 0.0 0.0 29.1751946751" Properties=species:S:1:pos:R:3:initial_magmoms:R:1 pbc="T T T"
Si       1.36416208       1.33004593       1.37940320       0.00000000
Si       1.35471225      -1.38851074      -1.33035970       0.00000000
Si      -1.34089507      -1.35306370       1.38564670       0.00000000
Si      -1.34869798       1.38476404      -1.36169386       0.00000000
Si      -2.69231348       2.68824098       0.06214316       0.00000000
Si       2.71096553       2.67739184       0.01047389       0.00000000
Si      -2.69723306      -2.70254360       0.03069230       0.00000000
Si       2.70101234      -0.06084315      -2.71268334       0.00000000
Si      -2.69537600       0.05196510      -2.75099913       0.00000000
Si       0.03378823       2.67959099       2.77068071       0.00000000
