10
Lattice="16.290000149 0.0 0.0 0.0 16.290000149 0.0 0.0 0.0 29.1751946751" Properties=species:S:1:pos:R:3:initial_magmoms:R:1 pbc="T T T"
Si      -1.37078722       1.35664750       1.33330640       0.00000000
Si      -1.37295379      -1.34768800      -1.34310926       0.00000000
Si       1.35032698       1.36464589      -1.35638398       0.00000000
Si       1.36875097      -1.34485354       1.36332767       0.00000000
Si      -0.00413766       2.71480997       2.66322847       0.00000000
Si      -0.01286910      -2.70507670      -2.68268833       0.00000000
Si       2.71964810      -2.69441489      -0.00916101       0.00000000
Si       2.72155403       0.01889640      -2.69491273       0.00000000
Si      -2.70272279       0.02256165      -2.71556877       0.00000000
Si      -2.71712315      -2.70293294       0.02290253       0.00000000
