10
Lattice="16.290000149 0.0 0.0 0.0 16.290000149 0.0 0.0 0.0 29.1751946751" Properties=species:S:1:pos:R:3:initial_magmoms:R:1 pbc="T T T"
Si       1.36091548      -1.35177679      -1.35232862       0.00000000
Si       1.37300266       1.36451557       1.33208104       0.00000000
Si      -1.35501850       1.35161389      -1.36849168       0.00000000
Si      -1.35509995      -1.34692237       1.37330559       0.00000000
Si      -0.00029322       2.72256401       2.65500107       0.00000000
Si       2.68465718      -2.71634123       0.04058270       0.00000000
Si      -2.71477739      -2.69347007       0.00656442       0.00000000
Si      -2.72389979       0.03984534       2.68598512       0.00000000
Si       0.00084708      -2.69535971      -2.71574382       0.00000000
Si       2.71650413       0.02596626      -2.70856672       0.00000000
