10
Lattice="16.290000149 0.0 0.0 0.0 16.290000149 0.0 0.0 0.0 29.1751946751" Properties=species:S:1:pos:R:3:initial_magmoms:R:1 pbc="T T T"
Si       1.53674974       0.72353665       1.60311860       0.00000000
Si      -1.22500801      -1.31463559       1.50153057       0.00000000
Si       0.61222708      -1.07496082      -2.04523950       0.00000000
Si      -1.49292964       1.86722498      -0.34718482       0.00000000
H        1.84598282      -1.84831392       0.72710420       0.00000000
H        3.11575575       0.37462113      -1.04388847       0.00000000
Si      -1.87965425       1.22619718      -2.57077228       0.00000000
Si       0.30320577       2.57357567       2.27344787       0.00000000
Si       3.15700203       1.41804451       0.04563000       0.00000000
Si      -2.55823049       0.22988448       2.66153631       0.00000000
