10
Lattice="16.290000149 0.0 0.0 0.0 16.290000149 0.0 0.0 0.0 29.1751946751" Properties=species:S:1:pos:R:3:initial_magmoms:R:1 pbc="T T T"
Si      -1.36212257      -1.39507561      -1.31825783       0.00000000
Si       1.29384466      -1.35327547       1.43191855       0.00000000
Si      -1.35053273       1.32647842       1.40668201       0.00000000
Si       1.37464307       1.36026388      -1.36231529       0.00000000
Si      -2.66139995      -2.68564110       0.15384080       0.00000000
Si      -2.81125166      -0.01026270      -2.54599087       0.00000000
Si       0.07142025      -2.70205979      -2.66887095       0.00000000
Si       2.69457291       2.70158249       0.03212189       0.00000000
Si       2.65047588      -2.74822239       0.14287093       0.00000000
Si      -2.68016603       2.73527021       0.09514031       0.00000000
