10
Lattice="16.290000149 0.0 0.0 0.0 16.290000149 0.0 0.0 0.0 29.1751946751" Properties=species:S:1:pos:R:3:initial_magmoms:R:1 pbc="T T T"
Si       1.30468240      -1.37969785       1.37561043       0.00000000
Si      -1.37358910      -1.38364003      -1.30961614       0.00000000
Si      -1.32543586       1.37086867       1.37152590       0.00000000
Si       1.35345466       1.34842105      -1.37371404       0.00000000
Si      -2.68524362       2.69721677      -0.01811780       0.00000000
Si       2.68484941      -0.01949913       2.71092991       0.00000000
Si      -0.00311139      -2.72358866      -2.67556958       0.00000000
Si      -2.69733080      -0.01907559      -2.70252746       0.00000000
Si       2.69583212       2.70884783      -0.01884718       0.00000000
Si      -2.67048488       0.02337615       2.74013428       0.00000000
