10
Lattice="16.290000149 0.0 0.0 0.0 16.290000149 0.0 0.0 0.0 29.1751946751" Properties=species:S:1:pos:R:3:initial_magmoms:R:1 pbc="T T T"
Si      -1.34640109       1.34485354      -1.36539911       0.00000000
Si      -1.35552349      -1.37072206       1.34626018       0.00000000
Si       1.35752716       1.34807896       1.36770395       0.00000000
Si       1.34361550      -1.30347694      -1.42383703       0.00000000
Si      -2.76832263      -0.11497482      -2.59066101       0.00000000
Si       0.11359017       2.78209517      -2.57976116       0.00000000
Si      -2.70029558       2.67406868       0.03573961       0.00000000
Si       2.69231348      -2.68824098      -0.06214316       0.00000000
Si       0.00734679      -2.71036280       2.71037559       0.00000000
Si      -2.71080263      -0.01793529       2.71227197       0.00000000
