10
Lattice="16.290000149 0.0 0.0 0.0 16.290000149 0.0 0.0 0.0 29.1751946751" Properties=species:S:1:pos:R:3:initial_magmoms:R:1 pbc="T T T"
Si       1.34027605       1.36254448       1.36548664       0.00000000
Si      -1.35089225       1.35928648      -1.35991417       0.00000000
Si      -1.35850456      -1.35229807       1.36253994       0.00000000
Si       1.36878355      -1.35350353      -1.35197852       0.00000000
Si      -2.68126610       2.70883154       0.03136333       0.00000000
Si       2.70687674       0.00516393       2.69424170       0.00000000
Si       0.00884547      -2.70804962      -2.70576590       0.00000000
Si       2.70861977       2.70653465       0.02231902       0.00000000
Si      -2.71068860      -2.70464501       0.00119618       0.00000000
Si       2.71700912      -2.71402805       0.01391657       0.00000000
