10
Lattice="16.290000149 0.0 0.0 0.0 16.290000149 0.0 0.0 0.0 29.1751946751" Properties=species:S:1:pos:R:3:initial_magmoms:R:1 pbc="T T T"
Si      -1.36834372      -1.34399017       1.34316761       0.00000000
Si      -1.38212506       1.34596126      -1.33631144       0.00000000
Si       1.35014779      -1.36479250      -1.35594635       0.00000000
Si       1.36669843       1.36207207       1.35229945       0.00000000
Si       0.00553860       2.70518258      -2.64055934       0.00000000
Si      -0.00174303      -2.70137072       2.67192268       0.00000000
Si       2.71396289      -0.00316026      -2.68557667       0.00000000
Si      -2.70861977      -2.70653465      -0.02231902       0.00000000
Si      -2.69996978       2.71655300       0.05286545       0.00000000
Si      -2.68667714       0.01873350       2.73394914       0.00000000
