10
Lattice="16.290000149 0.0 0.0 0.0 16.290000149 0.0 0.0 0.0 29.1751946751" Properties=species:S:1:pos:R:3:initial_magmoms:R:1 pbc="T T T"
Si       1.80664247       1.33248617       0.60229272       0.00000000
Si      -0.74039680      -0.34092527       2.25956048       0.00000000
Si      -1.21678156       1.86784074      -0.95292021       0.00000000
Si       1.60446727      -1.53080715      -1.08134942       0.00000000
H        0.70582942      -2.51796487       0.98804714       0.00000000
H       -1.19596294      -2.94225421      -0.25601233       0.00000000
Si      -0.28378809      -2.87030128      -1.47002136       0.00000000
Si       0.47341998       2.87700625       1.76229846       0.00000000
Si      -1.46570905       1.85001948       2.66509568       0.00000000
Si      -1.17516061      -1.44645753      -3.05928174       0.00000000
