10
Lattice="16.290000149 0.0 0.0 0.0 16.290000149 0.0 0.0 0.0 29.1751946751" Properties=species:S:1:pos:R:3:initial_magmoms:R:1 pbc="T T T"
H        0.63736255      -0.44049789       0.05592885       0.00000000
H       -1.14766309      -1.64572985       1.12791303       0.00000000
Si      -1.87618448      -1.72559972      -0.19363577       0.00000000
Si       0.84216043       1.73613935       1.76317371       0.00000000
Si      -0.09746307       0.81590095      -2.56347848       0.00000000
Si      -2.22550724       0.22727808      -1.56387796       0.00000000
Si       2.62205471       0.18741645       1.12919673       0.00000000
Si       1.39580866      -0.98015302      -2.44838234       0.00000000
Si      -0.26321382      -2.50716134      -1.71792299       0.00000000
Si      -0.38434626       3.05962041       0.24959379       0.00000000
