10
Lattice="16.290000149 0.0 0.0 0.0 16.290000149 0.0 0.0 0.0 29.1751946751" Properties=species:S:1:pos:R:3:initial_magmoms:R:1 pbc="T T T"
Si       0.46387404       2.19439334      -0.62046887       0.00000000
Si       1.06982947       0.06398712       2.09924278       0.00000000
Si      -0.45027189      -1.82891090      -1.43912483       0.00000000
Si      -2.31469988       0.17702343       0.59243150       0.00000000
H        2.73342945       0.98018560      -0.78930572       0.00000000
H       -0.11735316      -2.94733344       1.08788466       0.00000000
H        1.82234603       2.76457593      -0.34347957       0.00000000
Si      -1.37746612      -3.20981421       0.25834635       0.00000000
Si      -2.08046271       2.01565946       2.03418210       0.00000000
Si      -1.98817986      -0.75903256      -2.84075953       0.00000000
