10
Lattice="16.290000149 0.0 0.0 0.0 16.290000149 0.0 0.0 0.0 29.1751946751" Properties=species:S:1:pos:R:3:initial_magmoms:R:1 pbc="T T T"
Si      -1.31080845      -1.33144133       1.37280961       0.00000000
Si       1.23455620       1.35626208       1.44128379       0.00000000
Si      -1.46867484       1.29820126      -1.26745798       0.00000000
Si       1.38036310      -1.39402751      -1.29491184       0.00000000
Si       2.61454401      -0.08372506       2.61144250       0.00000000
Si      -0.08387822       2.63784526      -2.64473140       0.00000000
Si       2.64541356       2.66136802       0.06549831       0.00000000
Si      -2.61979141       0.07611063       2.71043394       0.00000000
Si       2.71700811      -0.03946513      -2.66136126       0.00000000
Si      -2.58651094      -2.79482092       0.07594303       0.00000000
