10
Lattice="16.290000149 0.0 0.0 0.0 16.290000149 0.0 0.0 0.0 29.1751946751" Properties=species:S:1:pos:R:3:initial_magmoms:R:1 pbc="T T T"
Si       1.31931082      -1.44117631       1.27629807       0.00000000
Si      -1.34855137      -1.36215352      -1.34806905       0.00000000
Si       1.38903202       1.35948196      -1.31372984       0.00000000
Si      -1.29116170       1.36681246       1.41330478       0.00000000
Si       2.74595646      -0.05147640       2.45503428       0.00000000
Si       0.01989009       2.70128927      -2.66769228       0.00000000
Si      -2.66348018       2.71909424       0.06625687       0.00000000
Si      -2.71515206      -0.00477297      -2.67682411       0.00000000
Si      -0.06491565      -2.77641876       2.61780269       0.00000000
Si       2.74147670      -0.01024641      -2.66465806       0.00000000
