10
Lattice="16.290000149 0.0 0.0 0.0 16.290000149 0.0 0.0 0.0 29.1751946751" Properties=species:S:1:pos:R:3:initial_magmoms:R:1 pbc="T T T"
Si      -1.23781195       1.36666585       1.41701003       0.00000000
Si       1.32287833      -1.37336104       1.33636979       0.00000000
Si       1.34804091       1.40919904      -1.30844913       0.00000000
Si      -1.38846187      -1.35687556      -1.33141001       0.00000000
H       -1.88441093       0.54058365       2.49418739       0.00000000
Si       2.61034220       0.03759732       2.65587632       0.00000000
Si      -2.81675280       2.45394191       0.09581134       0.00000000
Si      -0.08970903       2.76130164      -2.59405408       0.00000000
Si      -0.00488700      -2.69970914      -2.66792568       0.00000000
Si       2.68849511       0.04768083      -2.67962493       0.00000000
