10
Lattice="16.290000149 0.0 0.0 0.0 16.290000149 0.0 0.0 0.0 29.1751946751" Properties=species:S:1:pos:R:3:initial_magmoms:R:1 pbc="T T T"
Si       1.44076906       1.33059979       1.20823234       0.00000000
Si      -1.23786082       1.38891799      -1.37453095       0.00000000
Si       1.52161633      -1.31630532      -1.19790432       0.00000000
Si      -1.16548435      -1.43508060       1.50570262       0.00000000
H        2.08406117       0.48985659       2.28885237       0.00000000
Si       2.50170419      -2.17770423       0.78948077       0.00000000
Si       0.75329848      -2.49873127       2.28100425       0.00000000
Si       0.01058850       2.55787211       2.49439162       0.00000000
Si      -2.41509026      -2.75651238       0.03311385       0.00000000
Si      -2.53262261      -0.04662198      -2.68791069       0.00000000
