10
Lattice="16.290000149 0.0 0.0 0.0 16.290000149 0.0 0.0 0.0 29.1751946751" Properties=species:S:1:pos:R:3:initial_magmoms:R:1 pbc="T T T"
Si       0.62418394      -1.30317069       0.44489254       0.00000000
Si      -1.55018574       1.41400459       0.57831071       0.00000000
H        2.01222227       0.36170316      -1.36545746       0.00000000
Si      -0.04017114       2.65044818      -0.75590012       0.00000000
Si       1.12684447       1.24276411      -2.21407635       0.00000000
Si      -2.85172743      -0.26435412      -0.54190007       0.00000000
Si      -0.20129553       1.39313710       2.59948067       0.00000000
Si      -1.59532533      -1.53249805      -2.11838171       0.00000000
Si      -0.21533751      -2.97248520      -0.94822300       0.00000000
Si       2.93509965      -1.21790557       0.09324392       0.00000000
