10
Lattice="16.290000149 0.0 0.0 0.0 16.290000149 0.0 0.0 0.0 29.1751946751" Properties=species:S:1:pos:R:3:initial_magmoms:R:1 pbc="T T T"
Si       0.11940570      -2.30488027      -0.23567722       0.00000000
Si      -1.74840572      -0.32102703       1.49152348       0.00000000
Si      -0.98008786       0.86139892      -1.98738509       0.00000000
Si       1.83669752       1.18409568       1.00219711       0.00000000
H       -0.41764302       2.66756083       1.49937160       0.00000000
Si      -2.50170419       2.17770423      -0.78948077       0.00000000
Si       1.72151093      -2.23061416      -2.02647985       0.00000000
Si      -1.06093513       3.50830403       0.41875157       0.00000000
Si       0.40317750      -3.19211512       2.00521113       0.00000000
Si      -3.66718854       0.74262364       0.71622185       0.00000000
