10
Lattice="16.290000149 0.0 0.0 0.0 16.290000149 0.0 0.0 0.0 29.1751946751" Properties=species:S:1:pos:R:3:initial_magmoms:R:1 pbc="T T T"
Si       1.32098869      -1.33690402      -1.40589428       0.00000000
Si       1.39202450       1.37300266       1.31457592       0.00000000
Si      -1.33986880       1.36550926      -1.37569795       0.00000000
Si      -1.35654976      -1.34775316       1.39121916       0.00000000
Si      -0.01210347       2.69185736       2.62859751       0.00000000
Si       2.65035044      -2.69602760      -0.03997002       0.00000000
Si      -2.70027929      -2.67488318      -0.01552120       0.00000000
Si      -2.72344367       2.70834284      -0.03918229       0.00000000
Si       2.67116906       0.02854008      -2.77033061       0.00000000
Si       0.03382228      -2.70273908       2.74185562       0.00000000
