10
Lattice="16.28999089631971 0.0 0.0 0.0 16.28999089631971 0.0 0.0 0.0 34.54679606040008" Properties=species:S:1:pos:R:3:initial_magmoms:R:1 pbc="T T T"
Si      -0.55245387       1.15870770       1.96778660       0.00000000
Si      -1.37695593      -1.87994745       0.32515463       0.00000000
Si       1.94850815      -1.39411449      -0.07897402       0.00000000
Si      -0.78347865       1.38870621      -1.80963128       0.00000000
Si      -0.97441374      -2.69431713      -1.88694706       0.00000000
Si       1.42135398      -2.44131714      -2.13281674       0.00000000
Si      -0.50342097       3.50954108      -0.79243485       0.00000000
Si      -0.32097297      -2.80526832       2.39685805       0.00000000
Si      -2.88084873       0.82766232       2.19113176       0.00000000
Si      -3.49757184      -1.13560848       1.00759242       0.00000000
