10
Lattice="16.28999089631971 0.0 0.0 0.0 16.28999089631971 0.0 0.0 0.0 34.54679606040008" Properties=species:S:1:pos:R:3:initial_magmoms:R:1 pbc="T T T"
Si       0.86767056       2.01306186       0.81578850       0.00000000
Si       1.28993994      -1.49123547       1.28037407       0.00000000
Si      -2.26327070      -0.07687251       0.96081603       0.00000000
Si       0.69551784      -0.75707775      -2.25252146       0.00000000
Si       0.70032339      -3.52737144       0.17705243       0.00000000
Si      -1.15891947      -2.05200243      -2.86317096       0.00000000
Si      -3.65988149       0.50081976      -0.81641034       0.00000000
Si       1.69471386       1.56254724       3.02122264       0.00000000
Si       2.35131489       2.98433519      -0.68150503       0.00000000
Si       0.52463574       1.00983339      -3.82699257       0.00000000
