10
Lattice="16.28999089631971 0.0 0.0 0.0 16.28999089631971 0.0 0.0 0.0 34.54679606040008" Properties=species:S:1:pos:R:3:initial_magmoms:R:1 pbc="T T T"
Si      -1.40309028       1.25302680      -1.35362714       0.00000000
Si       1.35267273       1.36034532       1.35435262       0.00000000
Si      -1.36238157      -1.35483441       1.35034519       0.00000000
Si       1.21484304      -1.45398513      -1.41783585       0.00000000
Si      -2.08567386      -0.61944354      -2.75925556       0.00000000
Si      -0.50451759      -2.63958338      -2.66100093       0.00000000
Si       2.69682579       2.71134018      -0.01033986       0.00000000
Si       2.70627399       0.00433314       2.71249157       0.00000000
Si      -0.00661374      -2.71189746       2.71100606       0.00000000
Si      -0.00783549       2.71678104       2.71142062       0.00000000
