10
Lattice="16.28999089631971 0.0 0.0 0.0 16.28999089631971 0.0 0.0 0.0 34.54679606040008" Properties=species:S:1:pos:R:3:initial_magmoms:R:1 pbc="T T T"
Si       0.70402122       2.17209703       0.47505326       0.00000000
Si      -1.91713752      -0.78983940       1.20309285       0.00000000
Si       2.05161147      -1.22504304       0.19850600       0.00000000
Si       0.34125921       0.22254241      -2.41786251       0.00000000
Si      -1.18596087      -0.12108603       3.40255039       0.00000000
Si       1.22253192       0.06531590       3.40745604       0.00000000
Si       1.47189924      -3.16562187      -1.01609093       0.00000000
Si       1.94769756       2.04386215       2.43662143       0.00000000
Si       2.66501142       1.17515392      -2.46184061       0.00000000
Si      -2.14705458      -3.08863533       0.68312873       0.00000000
