10
Lattice="16.28999089631971 0.0 0.0 0.0 16.28999089631971 0.0 0.0 0.0 34.54679606040008" Properties=species:S:1:pos:R:3:initial_magmoms:R:1 pbc="T T T"
Si      -0.68999553       2.18793759       0.70938431       0.00000000
Si       1.18936548      -1.27100674       1.66712567       0.00000000
Si       1.99431954      -1.03881819      -0.98800437       0.00000000
Si      -2.32375221      -0.95261151       0.04397810       0.00000000
Si       0.89428842       2.07348405      -1.35748256       0.00000000
Si       3.19929084       1.13076546      -1.15427820       0.00000000
Si      -0.61339995      -2.40019696       2.66034661       0.00000000
Si      -1.96099020       0.99694311       2.93689387       0.00000000
Si      -2.66501142      -1.17515392       2.46184061       0.00000000
Si      -2.04402033      -3.18138391      -0.78549094       0.00000000
