10
Lattice="16.28999089631971 0.0 0.0 0.0 16.28999089631971 0.0 0.0 0.0 34.54679606040008" Properties=species:S:1:pos:R:3:initial_magmoms:R:1 pbc="T T T"
Si       2.13408774       0.58104801      -0.65621676       0.00000000
Si      -0.72516564      -1.97854626       0.97083461       0.00000000
Si      -1.24367634       0.12823488      -1.96156818       0.00000000
Si      -0.69491511       1.85241735       1.26382615       0.00000000
Si       0.15926733      -1.71269802       3.10368589       0.00000000
Si       1.59459552       2.25839673      -2.22712955       0.00000000
Si       0.84779676      -3.45863483      -0.01741159       0.00000000
Si       3.24260595       0.72464436       1.37561964       0.00000000
Si      -2.78865252       1.76679711      -1.48337116       0.00000000
Si       2.35361178      -1.11615659       2.56959213       0.00000000
