10
Lattice="16.28999089631971 0.0 0.0 0.0 16.28999089631971 0.0 0.0 0.0 34.54679606040008" Properties=species:S:1:pos:R:3:initial_magmoms:R:1 pbc="T T T"
Si      -0.88443297      -0.26584824      -2.13285129       0.00000000
Si       2.19434445       0.59654143      -0.53409377       0.00000000
Si      -1.46624661       1.52225163       1.00773060       0.00000000
Si       0.46343421      -2.17654667       0.85499913       0.00000000
Si      -0.15926733       1.71269802      -3.10368589       0.00000000
Si      -0.92299140      -3.46371731      -0.52770260       0.00000000
Si       0.68852943      -1.74593681      -3.12109749       0.00000000
Si       2.80339497      -1.13820578      -2.10393560       0.00000000
Si       3.45888828       0.65975152       1.44091312       0.00000000
Si      -3.12204366      -2.21916131      -0.56328582       0.00000000
