10
Lattice="16.28999089631971 0.0 0.0 0.0 16.28999089631971 0.0 0.0 0.0 34.54679606040008" Properties=species:S:1:pos:R:3:initial_magmoms:R:1 pbc="T T T"
Si       0.96703956       1.86981507       0.97294196       0.00000000
Si      -1.48364433      -0.97127333       1.49729352       0.00000000
Si       1.46624661      -1.52225163      -1.00773060       0.00000000
Si      -1.21337694       1.26244242      -1.64788309       0.00000000
Si      -2.81408121       0.97643889       1.61229987       0.00000000
Si      -1.09866276       2.76221385       1.81854436       0.00000000
Si       0.61206417       2.04286374      -2.84759035       0.00000000
Si       1.78800669       2.94187626      -1.01063254       0.00000000
Si       0.58181364      -1.78809987      -3.14058189       0.00000000
Si       2.46858660       1.25134893       2.63944579       0.00000000
