10
Lattice="16.28999089631971 0.0 0.0 0.0 16.28999089631971 0.0 0.0 0.0 34.54679606040008" Properties=species:S:1:pos:R:3:initial_magmoms:R:1 pbc="T T T"
Si       0.55946376      -1.60931583       1.64826311       0.00000000
Si      -0.82704330       0.45051461      -2.20543415       0.00000000
Si       2.31619365       0.68379719       0.03530685       0.00000000
Si      -1.24457229       1.60544140       1.35060775       0.00000000
Si      -0.78304401      -3.32605377       0.65245116       0.00000000
Si      -0.40477392      -3.05378271      -1.74084857       0.00000000
Si      -3.18666609       1.83301270       0.01012222       0.00000000
Si       2.93097825      -1.68949521       1.68166988       0.00000000
Si      -1.69471386      -1.56254724      -3.02122264       0.00000000
Si       3.51515394      -1.34761698      -0.53046635       0.00000000
