10
Lattice="16.28999089631971 0.0 0.0 0.0 16.28999089631971 0.0 0.0 0.0 34.54679606040008" Properties=species:S:1:pos:R:3:initial_magmoms:R:1 pbc="T T T"
Si       1.34415306       1.35099486      -1.36469248       0.00000000
Si      -1.35267273      -1.36034532      -1.35435262       0.00000000
Si       1.35360126      -1.35601218       1.35813895       0.00000000
Si      -1.36050822       1.35643572       1.35706800       0.00000000
Si       2.71124244      -2.71399545      -0.00673663       0.00000000
Si       2.71241532       0.00161271       2.71389417       0.00000000
Si      -0.00257382      -2.71393192       2.71427419       0.00000000
Si      -2.71505430      -2.71517973      -0.00400743       0.00000000
Si      -0.00231318       2.71622718       2.71410146       0.00000000
Si       2.71423980       2.71689507      -0.00438745       0.00000000
