10
Lattice="16.28999089631971 0.0 0.0 0.0 16.28999089631971 0.0 0.0 0.0 34.54679606040008" Properties=species:S:1:pos:R:3:initial_magmoms:R:1 pbc="T T T"
Si       1.35552348      -1.35927018      -1.35589341       0.00000000
Si      -1.35703845       1.35721764      -1.35682617       0.00000000
Si       1.34467434       1.35871632       1.37230315       0.00000000
Si      -1.37140623      -1.34426709       1.38135441       0.00000000
Si       0.08521299      -2.53578285       2.79165906       0.00000000
Si       2.70953199       2.71459818       0.00390379       0.00000000
Si      -0.00024435       2.71379997      -2.71392872       0.00000000
Si       2.71399545      -0.00048870      -2.71406691       0.00000000
Si      -2.71507059      -0.00052128      -2.71372144       0.00000000
Si      -2.71340901      -2.71575477       0.00549294       0.00000000
