10
Lattice="16.28999089631971 0.0 0.0 0.0 16.28999089631971 0.0 0.0 0.0 34.54679606040008" Properties=species:S:1:pos:R:3:initial_magmoms:R:1 pbc="T T T"
Si       0.51696315      -1.73786607       1.55747408       0.00000000
Si       1.04114277       2.03124897       0.77080854       0.00000000
Si      -2.37734631       0.24550659      -0.39182998       0.00000000
Si       0.71830755      -1.04342337      -2.11613063       0.00000000
Si       3.05199666       0.99756702       1.46547591       0.00000000
Si       1.94745321      -0.51021909       2.96083481       0.00000000
Si      -2.47472793       0.81073701      -2.72232360       0.00000000
Si      -1.41411861      -2.52765414       2.69890086       0.00000000
Si      -3.20566023       2.32761294       0.29271517       0.00000000
Si      -0.33430338       3.11083614       2.48256870       0.00000000
