10
Lattice="16.28999089631971 0.0 0.0 0.0 16.28999089631971 0.0 0.0 0.0 34.54679606040008" Properties=species:S:1:pos:R:3:initial_magmoms:R:1 pbc="T T T"
Si       1.35301482      -1.35332433       1.36142090       0.00000000
Si      -1.36303317       1.36181142       1.36055723       0.00000000
Si       1.36269108       1.36039419      -1.37778918       0.00000000
Si      -1.35749457      -1.38564369      -1.36058487       0.00000000
Si      -0.19893348       2.50147611      -2.72248942       0.00000000
Si      -2.77128575      -0.03982905      -2.61861060       0.00000000
Si       2.71077003      -2.70945054      -0.00031092       0.00000000
Si      -2.71506245      -2.71197549       0.00317831       0.00000000
Si      -0.00415395      -2.71070487       2.71831617       0.00000000
Si       2.71091664       0.00451233       2.71841981       0.00000000
