10
Lattice="16.28999089631971 0.0 0.0 0.0 16.28999089631971 0.0 0.0 0.0 34.54679606040008" Properties=species:S:1:pos:R:3:initial_magmoms:R:1 pbc="T T T"
Si      -1.35679410      -1.35658233       1.35710255       0.00000000
Si       1.35760860      -1.35718506      -1.35768984       0.00000000
Si      -1.35731538       1.35757602      -1.35765530       0.00000000
Si       1.35788553       1.35904212       1.35672253       0.00000000
Si       2.70977634       0.00079821       2.71783251       0.00000000
Si       0.00024435      -2.71379997       2.71392872       0.00000000
Si       2.71423980      -2.71428867      -0.00013819       0.00000000
Si      -2.71482624      -2.71432125       0.00020728       0.00000000
Si       2.71454931       0.00063531      -2.71475785       0.00000000
Si      -0.00014661       2.71495656      -2.71455056       0.00000000
