10
Lattice="16.28999089631971 0.0 0.0 0.0 16.28999089631971 0.0 0.0 0.0 34.54679606040008" Properties=species:S:1:pos:R:3:initial_magmoms:R:1 pbc="T T T"
Si      -1.35189081       1.35824391      -1.36110998       0.00000000
Si       1.36252818      -1.35858600      -1.36000448       0.00000000
Si      -1.36485765      -1.35588186       1.36839936       0.00000000
Si       1.38362373       1.36757808       1.35882989       0.00000000
Si       0.12931002      -2.64038094       2.68680947       0.00000000
Si      -2.70524772       2.71293660      -0.00186553       0.00000000
Si      -2.70953199      -2.71459818      -0.00390379       0.00000000
Si      -2.70977634      -0.00079821      -2.71783251       0.00000000
Si       2.71919196       2.71355562      -0.00462927       0.00000000
Si       0.00514764       2.71495656      -2.71786706       0.00000000
