10
Lattice="16.28999089631971 0.0 0.0 0.0 16.28999089631971 0.0 0.0 0.0 34.54679606040008" Properties=species:S:1:pos:R:3:initial_magmoms:R:1 pbc="T T T"
Si      -2.14868358      -0.50158539      -0.69490919       0.00000000
Si       0.09738162      -0.56523042       2.33049362       0.00000000
Si       1.28627469       1.74759120      -1.03999733       0.00000000
Si      -0.19833075      -1.94934285      -2.05712467       0.00000000
Si       1.50470730      -2.94712164      -0.74075282       0.00000000
Si      -0.73093230       1.51687593       3.01503876       0.00000000
Si      -1.71774792      -2.20348314       2.30928187       0.00000000
Si       2.73113253       0.50994216      -2.49092903       0.00000000
Si       3.19303548      -1.85416038       0.60619297       0.00000000
Si       2.47472793      -0.81073701       2.72232360       0.00000000
