10
Lattice="16.28999089631971 0.0 0.0 0.0 16.28999089631971 0.0 0.0 0.0 34.54679606040008" Properties=species:S:1:pos:R:3:initial_magmoms:R:1 pbc="T T T"
Si       1.35571896       1.35624024      -1.35672253       0.00000000
Si       1.35716877      -1.35703845       1.35751711       0.00000000
Si      -1.35790182      -1.35783666      -1.35699891       0.00000000
Si      -1.35762489       1.35764118       1.35748256       0.00000000
Si       0.00013032      -2.71375110       2.71427419       0.00000000
Si       0.00100998       2.71383255       2.71493058       0.00000000
Si       2.71458189      -2.71458189      -0.00003455       0.00000000
Si       2.71420722       2.71505430      -0.00034547       0.00000000
Si      -2.71091664      -0.00451233      -2.71841981       0.00000000
Si       2.71433754      -0.00006516       2.71527605       0.00000000
