10
Lattice="16.28999089631971 0.0 0.0 0.0 16.28999089631971 0.0 0.0 0.0 34.54679606040008" Properties=species:S:1:pos:R:3:initial_magmoms:R:1 pbc="T T T"
Si      -1.52269146       1.75950638       0.36529803       0.00000000
Si       1.44102969      -1.77914493       0.59845448       0.00000000
Si       2.40736878       0.06014268      -0.98292599       0.00000000
Si      -0.25361901      -2.58538590      -1.02576404       0.00000000
Si      -1.54272816      -1.08880731      -2.37395351       0.00000000
Si       1.18610748       1.62482229      -2.37923917       0.00000000
Si      -3.04049592       0.23594436      -0.74669487       0.00000000
Si      -0.08245998      -1.67677857       2.69672441       0.00000000
Si      -0.08516412       3.15590147      -0.97408201       0.00000000
Si      -0.36219186       0.55199384       3.52619344       0.00000000
