10
Lattice="16.28999089631971 0.0 0.0 0.0 16.28999089631971 0.0 0.0 0.0 34.54679606040008" Properties=species:S:1:pos:R:3:initial_magmoms:R:1 pbc="T T T"
Si      -1.15587324      -1.61176518      -1.21767160       0.00000000
Si       0.17456364       2.20547052      -0.73021604       0.00000000
Si      -1.43695719       0.48769002       1.86317885       0.00000000
Si       2.15866935      -0.98714142       0.50051426       0.00000000
Si      -2.06420364      -2.84768748       0.59873086       0.00000000
Si       3.18116007       0.93670758       1.44343504       0.00000000
Si       2.28942918       2.81320155       0.28694585       0.00000000
Si       1.48714668      -2.80456785       1.88252506       0.00000000
Si      -1.88182080      -1.65522690       2.71859254       0.00000000
Si      -0.05053158       1.77486066       3.24588058       0.00000000
