10
Lattice="16.28999089631971 0.0 0.0 0.0 16.28999089631971 0.0 0.0 0.0 34.54679606040008" Properties=species:S:1:pos:R:3:initial_magmoms:R:1 pbc="T T T"
Si       0.28514016       0.01423746      -2.33629748       0.00000000
Si      -1.95738685      -0.69889639       1.24389751       0.00000000
Si       0.68258358       1.87247034       1.40562843       0.00000000
Si       1.58115627      -2.02013984       0.09825464       0.00000000
Si       1.89723114       1.78766460      -1.69161936       0.00000000
Si      -0.65617749      -2.10206373       2.73608847       0.00000000
Si       2.08567386       0.61944354       2.75925556       0.00000000
Si       3.30051690      -0.83454159       1.34141972       0.00000000
Si       1.71393606       3.51979659       0.08794967       0.00000000
Si       0.52632990      -3.66703280       1.38693860       0.00000000
