10
Lattice="16.28999089631971 0.0 0.0 0.0 16.28999089631971 0.0 0.0 0.0 34.54679606040008" Properties=species:S:1:pos:R:3:initial_magmoms:R:1 pbc="T T T"
Si      -1.35006633      -1.34103876       1.39293105       0.00000000
Si       1.36120869       1.37394128       1.38767993       0.00000000
Si      -1.48786344       1.27360628      -1.37777191       0.00000000
Si       1.34602641      -1.50240750      -1.54489558       0.00000000
Si       0.31104126       2.31861467      -2.48458520       0.00000000
Si      -2.70042588      -2.69996685       0.01244722       0.00000000
Si       2.70778896      -2.70319227       0.02371984       0.00000000
Si      -2.70270648       2.72759141       0.04006394       0.00000000
Si       0.00351864      -2.69960847       2.75193367       0.00000000
Si       2.72093499       2.73787040       0.02530209       0.00000000
