10
Lattice="16.28999089631971 0.0 0.0 0.0 16.28999089631971 0.0 0.0 0.0 34.54679606040008" Properties=species:S:1:pos:R:3:initial_magmoms:R:1 pbc="T T T"
Si      -1.51599627      -1.31595248      -1.19977635       0.00000000
Si      -1.28858787       1.40481050       1.37534327       0.00000000
Si       1.08214470       1.30527860      -1.69465948       0.00000000
Si       1.27112499      -1.15178787       1.67731698       0.00000000
Si       0.17837550      -2.61724655      -2.28271537       0.00000000
Si      -1.82808009       3.08215922      -0.19556952       0.00000000
Si      -0.46001331      -2.02714130       3.03131031       0.00000000
Si       0.33552513       3.50653001      -1.10826184       0.00000000
Si      -0.18006966       1.54840685       3.40717967       0.00000000
Si       1.97198595       0.57437888       3.16666474       0.00000000
