10
Lattice="16.28999089631971 0.0 0.0 0.0 16.28999089631971 0.0 0.0 0.0 34.54679606040008" Properties=species:S:1:pos:R:3:initial_magmoms:R:1 pbc="T T T"
Si       0.05615326      -1.44360418       1.93486349       0.00000000
Si       0.64031755      -1.45676650      -1.81982259       0.00000000
Si      -2.40951647       0.46146801       0.08861258       0.00000000
Si       1.41163601       2.01566596       0.25070624       0.00000000
Si      -2.36843309       0.78362882       2.43821059       0.00000000
Si      -0.38553284      -3.52934320      -1.20533839       0.00000000
Si      -0.75629324      -0.87907423      -3.59704896       0.00000000
Si      -2.69045381       2.66542519      -0.76562652       0.00000000
Si      -0.50379824      -0.23522418       3.85777378       0.00000000
Si       2.44082192       2.58088009      -1.84984378       0.00000000
