10
Lattice="16.28999089631971 0.0 0.0 0.0 16.28999089631971 0.0 0.0 0.0 34.54679606040008" Properties=species:S:1:pos:R:3:initial_magmoms:R:1 pbc="T T T"
Si      -1.49837049       1.79181855       0.41210896       0.00000000
Si      -0.41220216      -1.57218048      -1.76893513       0.00000000
Si      -1.01718018      -1.84492395       1.18474849       0.00000000
Si       2.37431637       0.74000583       0.17784701       0.00000000
Si      -3.16987110      -0.86644881       1.28963262       0.00000000
Si       2.06964450       1.06145640       2.77024003       0.00000000
Si       3.30427989      -1.18128564      -0.90706118       0.00000000
Si       1.77494211      -1.74521286      -2.64030946       0.00000000
Si      -3.56889465       0.84260025      -0.34529542       0.00000000
Si      -1.22119614      -3.56152017      -0.67034641       0.00000000
