10
Lattice="16.28999089631971 0.0 0.0 0.0 16.28999089631971 0.0 0.0 0.0 34.54679606040008" Properties=species:S:1:pos:R:3:initial_magmoms:R:1 pbc="T T T"
Si      -0.98041365      -1.68498873       1.54641361       0.00000000
Si       1.80007758       1.00357803       1.42026937       0.00000000
Si      -1.94202864       1.61295435       0.00836033       0.00000000
Si       0.30467187      -0.32145057      -2.59239303       0.00000000
Si      -2.06964450      -1.06145640      -2.77024003       0.00000000
Si       0.38349918       2.34176895       2.93663273       0.00000000
Si      -2.35424709      -0.38478609       2.95992765       0.00000000
Si      -0.89337618       3.67393257       1.41309399       0.00000000
Si      -2.03732514      -3.50510301       0.44561837       0.00000000
Si       3.39366312       2.27854746      -0.15998630       0.00000000
