10
Lattice="16.28999089631971 0.0 0.0 0.0 16.28999089631971 0.0 0.0 0.0 34.54679606040008" Properties=species:S:1:pos:R:3:initial_magmoms:R:1 pbc="T T T"
Si       1.35198855      -1.35824391      -1.35824259       0.00000000
Si      -1.35720135      -1.35707103       1.35613524       0.00000000
Si       1.35729909       1.35742941       1.35637706       0.00000000
Si      -1.35663120       1.35912357      -1.35983175       0.00000000
Si       2.71155195       0.00527796      -2.71072969       0.00000000
Si      -2.71461447       0.00047241       2.71368689       0.00000000
Si       0.00060273      -2.71489140       2.71347961       0.00000000
Si       0.00013032       2.71508688       2.71330688       0.00000000
Si       2.71526607       0.00003258       2.71361780       0.00000000
Si       2.71477737       2.71435383      -0.00203826       0.00000000
