10
Lattice="16.28999089631971 0.0 0.0 0.0 16.28999089631971 0.0 0.0 0.0 34.54679606040008" Properties=species:S:1:pos:R:3:initial_magmoms:R:1 pbc="T T T"
Si       1.45386621      -1.24284555       1.35893353       0.00000000
Si      -1.33560081      -1.36567215      -1.36974668       0.00000000
Si       1.37653758       1.35215145      -1.35986629       0.00000000
Si      -1.50469101       1.31743746       1.40760999       0.00000000
Si      -2.67116904      -2.71164969      -0.00628752       0.00000000
Si       2.38775562       0.29136294       2.95952203       0.00000000
Si      -2.70712107       2.70102861      -0.02152267       0.00000000
Si      -2.69247636      -0.00729792      -2.72522553       0.00000000
Si       0.02215440       2.70839169      -2.72605465       0.00000000
Si       0.02112813      -2.72231964      -2.72567464       0.00000000
