10
Lattice="16.28999089631971 0.0 0.0 0.0 16.28999089631971 0.0 0.0 0.0 34.54679606040008" Properties=species:S:1:pos:R:3:initial_magmoms:R:1 pbc="T T T"
Si      -0.81863766       0.08281836      -2.26406009       0.00000000
Si       1.46029003       1.91822895       0.01095134       0.00000000
Si       1.43788150      -1.93965749       0.09172179       0.00000000
Si      -1.42157943       0.25749603       2.12424913       0.00000000
Si      -1.23558021      -2.01721418       2.59215120       0.00000000
Si       3.03411743       1.00874196       1.49183513       0.00000000
Si      -2.70273906       1.50050448      -2.07146160       0.00000000
Si       0.91015488      -2.95050086       2.17147463       0.00000000
Si       0.01646919       3.73259286       0.75512429       0.00000000
Si       3.72764789      -0.86562779       0.03036665       0.00000000
