10
Lattice="16.28999089631971 0.0 0.0 0.0 16.28999089631971 0.0 0.0 0.0 34.54679606040008" Properties=species:S:1:pos:R:3:initial_magmoms:R:1 pbc="T T T"
Si      -0.04052952      -0.19083735      -2.35992750       0.00000000
Si      -2.15956530       0.58125978       0.80480261       0.00000000
Si       0.28093734      -2.20395718       0.85423910       0.00000000
Si       1.60072056       1.70280999       0.61444966       0.00000000
Si       0.04557942       3.03676551       1.82666286       0.00000000
Si       0.32202072      -1.88179637       3.20383711       0.00000000
Si      -0.84141108       1.91580174      -3.08979807       0.00000000
Si      -3.68890308       0.01733256      -0.92844566       0.00000000
Si       2.69045381      -2.66542519       0.76562652       0.00000000
Si       1.84042791      -1.25864685      -3.24487873       0.00000000
