10
Lattice="16.28999089631971 0.0 0.0 0.0 16.28999089631971 0.0 0.0 0.0 34.54679606040008" Properties=species:S:1:pos:R:3:initial_magmoms:R:1 pbc="T T T"
Si       0.55995150      -1.20838000      -1.92291029       0.00000000
Si      -1.15900092      -1.46703262       1.46936385       0.00000000
Si       1.61500104       1.31018499       1.31361298       0.00000000
Si      -1.86463485       1.01885300      -1.41956319       0.00000000
Si      -1.47742155      -2.68663234      -1.91465360       0.00000000
Si      -2.88906408      -2.28262405       0.05541309       0.00000000
Si      -2.47954977      -0.08320879       2.83226335       0.00000000
Si      -2.72821662       2.64238771       0.03319949       0.00000000
Si       0.22661019       2.63629525       2.79348109       0.00000000
Si       0.50379824       0.23522418      -3.85777378       0.00000000
