10
Lattice="16.28999089631971 0.0 0.0 0.0 16.28999089631971 0.0 0.0 0.0 34.54679606040008" Properties=species:S:1:pos:R:3:initial_magmoms:R:1 pbc="T T T"
Si       1.35645201      -1.35596331       1.35917536       0.00000000
Si       1.35739838       1.35705474      -1.35768984       0.00000000
Si      -1.35783666      -1.35809730      -1.35720619       0.00000000
Si      -1.35654975       1.35780408       1.36069542       0.00000000
Si      -0.00687438      -2.72049516       2.69731170       0.00000000
Si       2.71277763      -2.71565703       0.00031092       0.00000000
Si      -2.71349046      -2.71516833       0.00006909       0.00000000
Si      -0.00068418       2.71450044      -2.71448147       0.00000000
Si       2.71467541      -0.00070047      -2.71472330       0.00000000
Si      -0.00011403      -2.71542897      -2.71455056       0.00000000
