10
Lattice="16.28999089631971 0.0 0.0 0.0 16.28999089631971 0.0 0.0 0.0 34.54679606040008" Properties=species:S:1:pos:R:3:initial_magmoms:R:1 pbc="T T T"
Si       1.20072843       1.49299479       1.29588559       0.00000000
Si       1.45210593      -1.25674092      -1.37472142       0.00000000
Si      -1.27640295       1.46028447      -1.37765790       0.00000000
Si      -0.96591555      -1.85618034       1.22330273       0.00000000
Si       2.15727560       0.28176813       2.99292880       0.00000000
Si       2.73302936      -2.61205263       0.16240458       0.00000000
Si       0.08353512      -2.61130329      -2.74636818       0.00000000
Si      -2.62946664       0.10246410      -2.74484812       0.00000000
Si       0.71243730      -3.58498917       1.34090009       0.00000000
Si      -2.55739968       2.93868342      -0.02086628       0.00000000
