10
Lattice="16.28999089631971 0.0 0.0 0.0 16.28999089631971 0.0 0.0 0.0 34.54679606040008" Properties=species:S:1:pos:R:3:initial_magmoms:R:1 pbc="T T T"
Si      -0.45639693      -0.09493812       2.33249733       0.00000000
Si       1.44382084      -1.81436391      -0.74417295       0.00000000
Si      -1.86031800      -0.25715394      -1.64498116       0.00000000
Si       1.68235694       1.86720867       0.17725971       0.00000000
Si       0.08612523       0.52388640      -3.20480442       0.00000000
Si       1.68527448       0.91266354       3.01192955       0.00000000
Si       1.76447808      -1.20492243      -3.08720706       0.00000000
Si      -0.01646919      -3.73259286      -0.75512429       0.00000000
Si      -0.33559029      -2.32384995       3.10182036       0.00000000
Si       0.36984816       3.74536422       1.28800892       0.00000000
