10
Lattice="16.28999089631971 0.0 0.0 0.0 16.28999089631971 0.0 0.0 0.0 34.54679606040008" Properties=species:S:1:pos:R:3:initial_magmoms:R:1 pbc="T T T"
Si       1.45063317       1.34610786      -1.15841103       0.00000000
Si       1.47093896      -1.26983808       1.28119974       0.00000000
Si      -1.26706878       1.47242052       1.29984120       0.00000000
Si      -0.95617413      -1.30722363      -1.83210541       0.00000000
Si      -1.29689577       0.58912785      -3.28690635       0.00000000
Si      -2.54975967      -2.58219306      -0.25184974       0.00000000
Si       0.09852192      -2.60768691       2.64883907       0.00000000
Si      -2.62663218       0.10889865       2.65232830       0.00000000
Si       0.56218419       2.07803385      -3.15127555       0.00000000
Si      -2.59247205       2.85454557      -0.09547703       0.00000000
