10
Lattice="16.28999089631971 0.0 0.0 0.0 16.28999089631971 0.0 0.0 0.0 34.54679606040008" Properties=species:S:1:pos:R:3:initial_magmoms:R:1 pbc="T T T"
Si      -1.45386621       1.24284555      -1.35893353       0.00000000
Si      -1.01007774      -1.62305415       1.36052268       0.00000000
Si       1.28099673      -1.47839895      -1.35679163       0.00000000
Si       0.93388941       1.53420849       1.60058850       0.00000000
Si       2.57461821       2.68656309       0.34422447       0.00000000
Si      -2.62752813      -2.67929775       0.00608024       0.00000000
Si      -0.07732863       2.59499700      -2.71879982       0.00000000
Si       2.64260667      -0.12300579      -2.72567464       0.00000000
Si      -1.35809730      -0.74083662       3.55510913       0.00000000
Si       2.55739968      -2.93868342       0.02086628       0.00000000
