10
Lattice="16.28999089631971 0.0 0.0 0.0 16.28999089631971 0.0 0.0 0.0 34.54679606040008" Properties=species:S:1:pos:R:3:initial_magmoms:R:1 pbc="T T T"
Si       1.33754325      -0.66130884      -1.79297972       0.00000000
Si       0.24239520       2.35351404      -0.10243131       0.00000000
Si      -2.33178318      -0.34741683       0.34049341       0.00000000
Si       1.05275754      -1.09449252       1.89116177       0.00000000
Si       3.33302264       0.42103134      -1.00669420       0.00000000
Si      -2.50747083      -0.00045612       2.70767575       0.00000000
Si       2.63816291       2.60651403      -0.34830099       0.00000000
Si      -0.59118039      -1.00178613       3.55345088       0.00000000
Si      -0.16014699       3.16788372       2.10967037       0.00000000
Si      -2.75107149      -2.74773204      -0.00100186       0.00000000
