10
Lattice="16.28999089631971 0.0 0.0 0.0 16.28999089631971 0.0 0.0 0.0 34.54679606040008" Properties=species:S:1:pos:R:3:initial_magmoms:R:1 pbc="T T T"
Si       1.35663120       1.35603787       1.35623888       0.00000000
Si      -1.35740497       1.35720913      -1.35727528       0.00000000
Si      -1.35620929      -1.35777743       1.35813895       0.00000000
Si       1.35835794      -1.35759824      -1.35724074       0.00000000
Si      -2.71558277      -0.00114623      -2.71365235       0.00000000
Si      -0.00343719      -2.71349639       2.71582880       0.00000000
Si      -2.71452716      -2.71483217       0.00048366       0.00000000
Si      -2.71486010       2.71450170       0.00038001       0.00000000
Si      -0.00203625       2.71427364      -2.71517241       0.00000000
Si       2.71554300       2.71482750      -0.00003455       0.00000000
