10
Lattice="16.28999089631971 0.0 0.0 0.0 16.28999089631971 0.0 0.0 0.0 34.54679606040008" Properties=species:S:1:pos:R:3:initial_magmoms:R:1 pbc="T T T"
Si       1.85907996       1.48890600       0.13563080       0.00000000
Si       0.34072164      -1.89635148       1.45480094       0.00000000
Si       0.31223043      -0.20825136      -2.52139932       0.00000000
Si      -2.30487210       0.80436762       1.64453205       0.00000000
Si       2.74752894       0.75698001       2.12849532       0.00000000
Si       1.29689577      -0.58912785       3.28690635       0.00000000
Si       2.14031052      -2.87463114       0.07123553       0.00000000
Si      -1.07766495       1.60146990      -3.06551166       0.00000000
Si      -0.35354187      -2.44845216      -2.74464084       0.00000000
Si       1.05049323       3.70380843      -0.15856988       0.00000000
