10
Lattice="16.28999089631971 0.0 0.0 0.0 16.28999089631971 0.0 0.0 0.0 34.54679606040008" Properties=species:S:1:pos:R:3:initial_magmoms:R:1 pbc="T T T"
Si      -1.00929582      -1.46105010      -1.54689726       0.00000000
Si      -1.39794264       1.32276429       1.37728134       0.00000000
Si       1.32540327      -1.38212505       1.39531824       0.00000000
Si       0.93442698       1.84239900      -1.37993251       0.00000000
Si      -2.75970519       2.52354906      -0.19133408       0.00000000
Si       2.66449014       2.65799043       0.03401825       0.00000000
Si      -2.65074138      -2.76638409      -0.16354808       0.00000000
Si      -0.03005505       2.68856676       2.74248512       0.00000000
Si       2.68801290      -0.03085326       2.74656164       0.00000000
Si       2.59247205      -2.85454557       0.09547703       0.00000000
