10
Lattice="16.28999089631971 0.0 0.0 0.0 16.28999089631971 0.0 0.0 0.0 34.54679606040008" Properties=species:S:1:pos:R:3:initial_magmoms:R:1 pbc="T T T"
Si      -1.35729909      -1.35742941      -1.35637706       0.00000000
Si      -1.35716877       1.35765747       1.35692981       0.00000000
Si       1.35796698      -1.35739683       1.35724074       0.00000000
Si       1.35747828       1.35692442      -1.35841533       0.00000000
Si      -2.71450044      -2.71450044      -0.00024183       0.00000000
Si      -0.00114030      -2.71500543       2.71461966       0.00000000
Si      -2.71474479       0.00001629       2.71506877       0.00000000
Si      -0.00011403       2.71570590       2.71423964       0.00000000
Si      -2.71487511       2.71513575      -0.00055275       0.00000000
Si      -2.71393029       0.00169416      -2.71620881       0.00000000
