10
Lattice="16.28999089631971 0.0 0.0 0.0 16.28999089631971 0.0 0.0 0.0 34.54679606040008" Properties=species:S:1:pos:R:3:initial_magmoms:R:1 pbc="T T T"
Si      -1.89003748      -0.66033144       1.24835405       0.00000000
Si       1.81149687      -1.63540197       0.12087278       0.00000000
Si       0.74355705       2.07762660       1.23308436       0.00000000
Si      -0.51662106      -1.05239916      -2.35609281       0.00000000
Si      -0.55030878      -1.83501963       2.78277504       0.00000000
Si       2.18745378       0.90416016       2.75660582       0.00000000
Si       0.78014439      -3.28272822       1.43855154       0.00000000
Si      -1.88331622       0.69978582      -3.09242363       0.00000000
Si      -3.19224981      -1.92627621      -0.31430693       0.00000000
Si       3.53510919      -0.53766774       1.33837269       0.00000000
