10
Lattice="16.28999089631971 0.0 0.0 0.0 16.28999089631971 0.0 0.0 0.0 34.54679606040008" Properties=species:S:1:pos:R:3:initial_magmoms:R:1 pbc="T T T"
Si       1.35756787       1.32633180      -1.36376317       0.00000000
Si       1.35049802      -1.35586557       1.35710255       0.00000000
Si      -1.36181188       1.35791811       1.35765530       0.00000000
Si      -1.34266888      -1.37800368      -1.37029943       0.00000000
Si      -0.05622331       2.67214644      -2.62178891       0.00000000
Si       2.71085962      -2.71265967      -0.00310921       0.00000000
Si       2.71090850       0.00127062       2.71513786       0.00000000
Si       2.71506245       2.71197549      -0.00317831       0.00000000
Si      -0.00417350      -2.71384884       2.71527605       0.00000000
Si      -2.71508592      -2.71585251      -0.00266010       0.00000000
