10
Lattice="16.28999089631971 0.0 0.0 0.0 16.28999089631971 0.0 0.0 0.0 34.54679606040008" Properties=species:S:1:pos:R:3:initial_magmoms:R:1 pbc="T T T"
Si       1.36559070       1.34703639      -1.39265122       0.00000000
Si      -1.34442689      -1.37081979      -1.39220211       0.00000000
Si       1.33651305      -1.38487806       1.39427492       0.00000000
Si      -1.41241535       1.43874909       1.67769699       0.00000000
Si      -0.22890545      -2.69350263       2.65022439       0.00000000
Si      -2.69142470       2.71495656       0.00162370       0.00000000
Si       2.71241532       2.71070487      -0.00269465       0.00000000
Si       2.71471221      -2.71586880      -0.03406316       0.00000000
Si      -2.70603683      -2.72621295      -0.02331910       0.00000000
Si       0.01281860       2.70275535      -2.75034106       0.00000000
