10
Lattice="16.28999089631971 0.0 0.0 0.0 16.28999089631971 0.0 0.0 0.0 34.54679606040008" Properties=species:S:1:pos:R:3:initial_magmoms:R:1 pbc="T T T"
Si       0.82831392      -2.08210635      -0.68454515       0.00000000
Si      -1.29551112      -0.40037562       1.91223532       0.00000000
Si       1.35575154       1.77696207       0.72071566       0.00000000
Si      -1.33747416       1.69262874      -1.09575589       0.00000000
Si      -0.74075517       2.92659624       0.94122798       0.00000000
Si       0.73093230      -1.51687593      -3.01503876       0.00000000
Si       2.87135685       0.78322320       2.18985353       0.00000000
Si      -1.99037084       1.78510707       2.57062853       0.00000000
Si      -3.29099051      -1.48271580       1.12594981       0.00000000
Si      -0.98681562      -3.72035907      -0.70575689       0.00000000
