10
Lattice="16.28999089631971 0.0 0.0 0.0 16.28999089631971 0.0 0.0 0.0 34.54679606040008" Properties=species:S:1:pos:R:3:initial_magmoms:R:1 pbc="T T T"
Si      -1.35309857      -1.34814813      -1.38892017       0.00000000
Si       1.36491141       1.36656973      -1.38632915       0.00000000
Si      -1.48659512       1.35669799       1.35682617       0.00000000
Si       1.20820161      -1.37341546       1.62722410       0.00000000
Si      -2.69787065      -2.69391544       0.00428381       0.00000000
Si       2.70596937      -2.69816713      -0.00003455       0.00000000
Si      -2.71587110       2.71878634      -0.05123293       0.00000000
Si       2.70691419       2.73805741      -0.01046769       0.00000000
Si       0.00637265      -2.70611665      -2.74768096       0.00000000
Si      -2.71171715       0.00904747      -2.74968468       0.00000000
