10
Lattice="16.28999089631971 0.0 0.0 0.0 16.28999089631971 0.0 0.0 0.0 34.54679606040008" Properties=species:S:1:pos:R:3:initial_magmoms:R:1 pbc="T T T"
Si      -1.35277210       1.35571896      -1.35768984       0.00000000
Si       1.36070370      -1.35974259      -1.35824259       0.00000000
Si       1.34682462       1.36366848       1.38995657       0.00000000
Si      -1.36559070      -1.34703639       1.39265122       0.00000000
Si       2.63593377      -0.13291011       2.73814604       0.00000000
Si      -2.71224332       2.71368748       0.00107095       0.00000000
Si      -2.71108997      -0.00133578      -2.71534514       0.00000000
Si      -2.71001759      -2.71785618       0.00044911       0.00000000
Si       0.00343719       2.71349639      -2.71582880       0.00000000
Si       2.71723716       2.71410948       0.00082912       0.00000000
