10
Lattice="16.28999089631971 0.0 0.0 0.0 16.28999089631971 0.0 0.0 0.0 34.54679606040008" Properties=species:S:1:pos:R:3:initial_magmoms:R:1 pbc="T T T"
Si      -1.00157273       1.39013973       1.74841433       0.00000000
Si      -1.35372573      -1.22228757      -1.69293214       0.00000000
Si       1.27333717       1.37441988      -1.74606514       0.00000000
Si       1.77993988      -1.40123322       1.39551861       0.00000000
Si       1.28819365       2.46416942       1.68705918       0.00000000
Si      -2.99445453      -2.37464217      -0.43656811       0.00000000
Si       2.74443820      -2.72388348      -0.42005473       0.00000000
Si       2.79114163       2.89798190      -0.63407225       0.00000000
Si      -1.52929935       0.37929636       3.82816716       0.00000000
Si      -2.63273508       0.05391990      -3.36900543       0.00000000
