10
Lattice="16.28999089631971 0.0 0.0 0.0 16.28999089631971 0.0 0.0 0.0 34.54679606040008" Properties=species:S:1:pos:R:3:initial_magmoms:R:1 pbc="T T T"
Si      -0.07840377      -1.62500895       1.67334410       0.00000000
Si       1.85443731       1.29492468       0.61064951       0.00000000
Si      -0.52715417      -1.04720265      -2.05384272       0.00000000
Si      -1.94850815       1.39411449       0.07897402       0.00000000
Si      -3.32546408      -0.48583296       0.40412865       0.00000000
Si       1.68355521       3.06183582      -0.96382160       0.00000000
Si      -2.26948112      -1.41115383       2.47583207       0.00000000
Si      -2.92292189      -1.30020264      -1.80797304       0.00000000
Si       1.15891947       2.05200243       2.86317096       0.00000000
Si       0.72246150       0.09428652      -3.68324327       0.00000000
