10
Lattice="10.86 0.0 0.0 0.0 10.86 0.0 0.0 0.0 10.86" Properties=species:S:1:pos:R:3:initial_magmoms:R:1 pbc="T T T"
Si       1.02905016      -1.23308784      -1.43783142       0.00000000
Si       1.19885712       1.85075034       0.85868934       0.00000000
Si      -1.68594984      -1.23308784       1.27716858       0.00000000
Si      -1.68594984       1.48191216      -1.43783142       0.00000000
Si       2.11780860       0.10056360      -2.74787322       0.00000000
Si       2.46994410       0.23347914       2.43114132       0.00000000
Si       2.38655016      -2.59058784      -0.08033142       0.00000000
Si      -0.32844984      -2.59058784       2.63466858       0.00000000
Si      -0.32844984      -2.59058784      -2.79533142       0.00000000
Si      -0.00533226       2.90335584       2.54947188       0.00000000
