10
Lattice="10.86 0.0 0.0 0.0 10.86 0.0 0.0 0.0 10.86" Properties=species:S:1:pos:R:3:initial_magmoms:R:1 pbc="T T T"
Si      -1.08875844      -1.33365144       1.31004180       0.00000000
Si      -1.08875844       1.38134856      -1.40495820       0.00000000
Si       1.62624156      -1.33365144      -1.40495820       0.00000000
Si      -2.11780860      -0.10056360       2.74787322       0.00000000
Si      -2.44625844      -2.69115144      -0.04745820       0.00000000
Si      -2.44625844       0.02384856      -2.76245820       0.00000000
Si      -2.39618298       2.80823310       0.09172356       0.00000000
Si       0.26874156      -2.69115144       2.66754180       0.00000000
Si       0.26874156      -2.69115144      -2.76245820       0.00000000
Si       0.26874156       2.73884856      -2.76245820       0.00000000
