10
Lattice="10.86 0.0 0.0 0.0 10.86 0.0 0.0 0.0 10.86" Properties=species:S:1:pos:R:3:initial_magmoms:R:1 pbc="T T T"
Si      -1.18836636       1.40640258       1.21923048       0.00000000
Si      -1.18836636      -1.30859742      -1.49576952       0.00000000
Si       1.52663364      -1.30859742       1.21923048       0.00000000
Si      -2.54586636       0.04890258       2.57673048       0.00000000
Si       0.14873856       2.45098254      -2.68615584       0.00000000
Si      -2.54586636      -2.66609742      -0.13826952       0.00000000
Si       0.16913364      -2.66609742       2.57673048       0.00000000
Si      -2.54586636       2.76390258      -0.13826952       0.00000000
Si       2.81673648       2.48717892      -0.18983280       0.00000000
Si       0.16913364       2.76390258       2.57673048       0.00000000
