10
Lattice="10.86 0.0 0.0 0.0 10.86 0.0 0.0 0.0 10.86" Properties=species:S:1:pos:R:3:initial_magmoms:R:1 pbc="T T T"
Si       1.06319400      -1.37942634       1.17945030       0.00000000
Si       1.06319400       1.33557366      -1.53554970       0.00000000
Si      -1.65180600       1.33557366       1.17945030       0.00000000
Si       2.42069400      -0.02192634       2.53695030       0.00000000
Si       2.42069400       2.69307366      -0.17804970       0.00000000
Si       2.42069400      -2.73692634      -0.17804970       0.00000000
Si      -0.29430600       2.69307366       2.53695030       0.00000000
Si      -0.29430600      -2.73692634       2.53695030       0.00000000
Si       2.42069400      -0.02192634      -2.89304970       0.00000000
Si      -3.00930600      -0.02192634       2.53695030       0.00000000
