10
Lattice="10.86 0.0 0.0 0.0 10.86 0.0 0.0 0.0 10.86" Properties=species:S:1:pos:R:3:initial_magmoms:R:1 pbc="T T T"
Si      -1.31050878      -1.09473144       1.35079938       0.00000000
Si       1.40449122      -1.09473144      -1.36420062       0.00000000
Si       1.40449122       1.62026856       1.35079938       0.00000000
Si      -1.17276054       1.82952990      -1.39625934       0.00000000
Si      -2.66800878      -2.45223144      -0.00670062       0.00000000
Si       0.04699122      -2.45223144       2.70829938       0.00000000
Si       0.04699122      -2.45223144      -2.72170062       0.00000000
Si       2.76199122      -2.45223144      -0.00670062       0.00000000
Si      -2.80900416       0.30044190      -2.62154970       0.00000000
Si      -2.83170156       0.19171158       2.62677336       0.00000000
