10
Lattice="10.86 0.0 0.0 0.0 10.86 0.0 0.0 0.0 10.86" Properties=species:S:1:pos:R:3:initial_magmoms:R:1 pbc="T T T"
Si       1.11406224       1.50250272       1.30072392       0.00000000
Si      -1.60093776      -1.21249728       1.30072392       0.00000000
Si      -1.60093776       1.50250272      -1.41427608       0.00000000
Si       0.51643644      -2.75511684      -1.84040076       0.00000000
Si       2.30786946      -2.64105426      -0.13830210       0.00000000
Si       2.47156224       0.14500272       2.65822392       0.00000000
Si      -0.24343776      -2.56999728       2.65822392       0.00000000
Si       2.39465172       2.96311842       0.01492164       0.00000000
Si      -0.24343776       2.86000272       2.65822392       0.00000000
Si      -2.95843776      -2.56999728      -0.05677608       0.00000000
