10
Lattice="10.86 0.0 0.0 0.0 10.86 0.0 0.0 0.0 10.86" Properties=species:S:1:pos:R:3:initial_magmoms:R:1 pbc="T T T"
Si       1.36290828       1.22607228       1.23495576       0.00000000
Si      -1.35209172       1.22607228      -1.48004424       0.00000000
Si      -1.35209172      -1.48892772       1.23495576       0.00000000
Si       1.24591350      -1.65600882      -1.32793908       0.00000000
Si       0.00540828       2.58357228       2.59245576       0.00000000
Si       2.68751334       2.52813198      -0.20739342       0.00000000
Si       2.66590194      -0.26222556      -2.60497734       0.00000000
Si      -2.70959172       2.58357228      -0.12254424       0.00000000
Si      -2.70959172      -0.13142772       2.59245576       0.00000000
Si       2.72040828      -0.13142772       2.59245576       0.00000000
