10
Lattice="16.28999089631971 0.0 0.0 0.0 16.28999089631971 0.0 0.0 0.0 34.32429715621058" Properties=species:S:1:pos:R:3:initial_magmoms:R:1 pbc="T T T"
Si      -0.54298968      -1.02983751       2.00835007       0.00000000
Si      -1.30274360      -1.08646155      -1.58815179       0.00000000
Si       2.17863112      -0.18432135      -0.84561386       0.00000000
Si      -1.16167948       1.94504459      -0.81201035       0.00000000
Si      -0.55696650       0.57608984      -3.17383223       0.00000000
Si       1.82248285       0.35595279      -3.11554955       0.00000000
Si       0.88597075       0.00164529       3.55363079       0.00000000
Si       2.64651250      -2.48114619      -0.79282306       0.00000000
Si      -2.76555397      -0.66026628       2.55431265       0.00000000
Si      -3.55886068      -0.71236170      -1.20416567       0.00000000
