10
Lattice="16.28999089631971 0.0 0.0 0.0 16.28999089631971 0.0 0.0 0.0 34.32429715621058" Properties=species:S:1:pos:R:3:initial_magmoms:R:1 pbc="T T T"
Si       0.24954651       0.00390146      -2.30803568       0.00000000
Si      -0.65989161       1.98809839       1.01781895       0.00000000
Si      -1.90781964      -1.51424251      -0.29738588       0.00000000
Si       2.09707686      -0.93213565       0.90025817       0.00000000
Si       1.43884683      -3.00842647      -0.25756967       0.00000000
Si      -0.73609623      -3.21139987       0.73570740       0.00000000
Si       1.78134408      -1.90319884      -2.34730270       0.00000000
Si      -0.38537253       1.17017749       3.35424084       0.00000000
Si      -2.82779576       2.76663007      -0.00463378       0.00000000
Si       3.05655786       1.80309286       1.78510472       0.00000000
