10
Lattice="16.28999089631971 0.0 0.0 0.0 16.28999089631971 0.0 0.0 0.0 34.32429715621058" Properties=species:S:1:pos:R:3:initial_magmoms:R:1 pbc="T T T"
Si      -0.44276220       1.91962989       1.24916484       0.00000000
Si       2.20737645      -0.71359974       0.56686608       0.00000000
Si      -1.90780335      -1.27951434       0.72839632       0.00000000
Si      -0.09881514       0.42345855      -2.39370917       0.00000000
Si      -2.65277763       1.99713771       0.29422804       0.00000000
Si       2.22264018       0.80541018      -2.67355532       0.00000000
Si      -3.55964193      -0.10067220      -0.49694745       0.00000000
Si       1.18307754       3.38589279       0.30981128       0.00000000
Si       3.30445908      -0.89888220      -1.50395424       0.00000000
Si       2.00244825      -2.88338213       1.33418618       0.00000000
