10
Lattice="16.28999089631971 0.0 0.0 0.0 16.28999089631971 0.0 0.0 0.0 34.32429715621058" Properties=species:S:1:pos:R:3:initial_magmoms:R:1 pbc="T T T"
Si       1.89203463       1.27457847      -0.49591772       0.00000000
Si      -1.43961246       0.89884962       1.60720179       0.00000000
Si      -1.36653552       0.04681746      -1.91993063       0.00000000
Si       0.99088812      -2.08016784       0.76598144       0.00000000
Si      -3.32130294      -0.76354488      -0.81794846       0.00000000
Si       2.12426487       0.46314099      -2.76091071       0.00000000
Si       3.28553010       0.53064675       1.31475861       0.00000000
Si       3.31234344      -1.69821621       0.48613529       0.00000000
Si      -0.92281221       3.17894463       1.86068686       0.00000000
Si      -1.56307437      -0.50648868       3.45391866       0.00000000
