10
Lattice="16.28999089631971 0.0 0.0 0.0 16.28999089631971 0.0 0.0 0.0 34.32429715621058" Properties=species:S:1:pos:R:3:initial_magmoms:R:1 pbc="T T T"
Si      -0.30525831      -2.05662879      -1.12878947       0.00000000
Si       2.32145532       0.38195163      -0.27984615       0.00000000
Si      -0.99088812       2.08016784      -0.76598144       0.00000000
Si       0.09881514      -0.42345855       2.39370917       0.00000000
Si       2.29464198       2.61081459       0.54877717       0.00000000
Si       0.90114651       3.35474631      -1.26189917       0.00000000
Si       0.86788233      -1.76290380      -3.18883196       0.00000000
Si       3.40327422      -1.32234075       0.88975493       0.00000000
Si      -2.57404806      -2.39581917      -1.61969584       0.00000000
Si       2.30619159      -1.13705829       2.96057526       0.00000000
