10
Lattice="16.28999089631971 0.0 0.0 0.0 16.28999089631971 0.0 0.0 0.0 34.32429715621058" Properties=species:S:1:pos:R:3:initial_magmoms:R:1 pbc="T T T"
Si      -1.34123715      -1.36220238       1.37984095       0.00000000
Si       1.40282964      -1.26312660      -1.43295440       0.00000000
Si       1.37580453       1.35404109       1.37925744       0.00000000
Si      -1.40686956       1.36977723      -1.46702815       0.00000000
Si      -2.69188992       2.70625770       0.02383137       0.00000000
Si      -2.69086365      -2.71904535       0.01058562       0.00000000
Si       2.72458395      -2.69236233       0.01927310       0.00000000
Si       2.72995965       2.69812899       0.00121165       0.00000000
Si      -2.69834076      -0.00464265       2.73959874       0.00000000
Si       0.01726740       2.70914103       2.73987334       0.00000000
