10
Lattice="16.28999089631971 0.0 0.0 0.0 16.28999089631971 0.0 0.0 0.0 34.32429715621058" Properties=species:S:1:pos:R:3:initial_magmoms:R:1 pbc="T T T"
Si      -1.33905429      -1.35953082       1.37177130       0.00000000
Si      -1.35526284       1.35988920      -1.35804158       0.00000000
Si       1.35812988      -1.35728280      -1.35838482       0.00000000
Si       1.36397799       1.35729909       1.36339617       0.00000000
Si      -0.17744697       2.55068820       2.69596910       0.00000000
Si      -2.71433754      -2.71366965      -0.00154459       0.00000000
Si      -2.71290402       0.00141723      -2.71608315       0.00000000
Si       0.00158013      -2.71329498      -2.71591153       0.00000000
Si       2.71880100      -2.71191033      -0.00054919       0.00000000
Si       2.71490769       2.71692765       0.00113270       0.00000000
