10
Lattice="16.28999089631971 0.0 0.0 0.0 16.28999089631971 0.0 0.0 0.0 34.32429715621058" Properties=species:S:1:pos:R:3:initial_magmoms:R:1 pbc="T T T"
Si      -1.38323277       1.24527276      -1.51490370       0.00000000
Si      -1.84749777      -0.88642035       1.27902700       0.00000000
Si       1.30010490      -1.45999125      -1.50985803       0.00000000
Si       1.16888895       1.64476872       1.50608235       0.00000000
Si       2.51779869      -0.14778288       2.59711507       0.00000000
Si       2.67265143       2.63739987      -0.11553565       0.00000000
Si      -2.87617869       2.42584164      -0.11103916       0.00000000
Si      -0.04417848       2.60480358      -2.88667500       0.00000000
Si      -2.76791535      -2.74201425      -0.02938161       0.00000000
Si       2.61084717      -2.92293099      -0.21071698       0.00000000
