10
Lattice="16.28999089631971 0.0 0.0 0.0 16.28999089631971 0.0 0.0 0.0 34.32429715621058" Properties=species:S:1:pos:R:3:initial_magmoms:R:1 pbc="T T T"
Si       1.50376248       0.99263115      -1.62161800       0.00000000
Si       1.34890974      -1.79255160       1.09103272       0.00000000
Si      -1.16888895      -1.64476872      -1.50608235       0.00000000
Si       0.02321325       1.95361083       1.83326174       0.00000000
Si       3.02661684      -0.13975191       1.50584208       0.00000000
Si       2.40461577       2.10921291       1.68302420       0.00000000
Si       0.15091056       2.31733395      -3.02936119       0.00000000
Si       3.32532657       1.91111022      -0.46766881       0.00000000
Si      -3.01638672      -2.53118907      -0.22705535       0.00000000
Si      -2.55212172      -0.39949596      -3.02098605       0.00000000
