10
Lattice="16.28999089631971 0.0 0.0 0.0 16.28999089631971 0.0 0.0 0.0 34.32429715621058" Properties=species:S:1:pos:R:3:initial_magmoms:R:1 pbc="T T T"
Si       2.38140252       0.15560208      -0.15023753       0.00000000
Si      -0.84468537       2.23086663      -0.22314238       0.00000000
Si      -0.49303314      -0.50844348       2.36398431       0.00000000
Si      -0.02321325      -1.95361083      -1.83326174       0.00000000
Si      -2.67240708      -1.38603465       2.04377277       0.00000000
Si       3.00340359      -2.09336274      -0.32741965       0.00000000
Si      -3.01962843       2.02789323       0.77013469       0.00000000
Si      -3.22351407       0.53274816      -2.01353305       0.00000000
Si       1.48054923      -0.96097968      -3.45487974       0.00000000
Si      -0.71478891       1.53717327       3.60546051       0.00000000
