10
Lattice="16.28999089631971 0.0 0.0 0.0 16.28999089631971 0.0 0.0 0.0 34.32429715621058" Properties=species:S:1:pos:R:3:initial_magmoms:R:1 pbc="T T T"
Si       0.60740523      -2.17414485       0.69311092       0.00000000
Si       1.54295622       1.47364227       1.14032244       0.00000000
Si      -2.18307177       1.02584646      -0.46358422       0.00000000
Si       0.08548992      -0.12036681      -2.69215910       0.00000000
Si       2.24912772      -1.18332189      -2.21971921       0.00000000
Si      -1.63950705      -1.90483857      -2.30992352       0.00000000
Si       0.82111374       2.21143266      -2.61812155       0.00000000
Si       2.81261511      -2.27033730      -0.08110836       0.00000000
Si       2.51512713       2.41556265      -1.00659490       0.00000000
Si      -3.63874128      -0.40449699       0.76659928       0.00000000
