10
Lattice="16.28999089631971 0.0 0.0 0.0 16.28999089631971 0.0 0.0 0.0 34.32429715621058" Properties=species:S:1:pos:R:3:initial_magmoms:R:1 pbc="T T T"
Si       1.56838491       1.02990267       1.43022561       0.00000000
Si       0.64804878      -2.29487004       0.03096053       0.00000000
Si      -2.24339364       0.56650104       0.58625932       0.00000000
Si      -0.23570001       0.56552364      -2.31091892       0.00000000
Si      -1.52946810      -3.19723830       0.18668996       0.00000000
Si      -3.43961721      -0.12878874      -1.31139483       0.00000000
Si       1.08170487       3.33195660       1.22949701       0.00000000
Si       0.92960514       0.33694236       3.64386942       0.00000000
Si       1.46279313      -2.77166205      -2.14012112       0.00000000
Si      -0.01394424      -1.48009311      -3.55239512       0.00000000
