10
Lattice="16.28999089631971 0.0 0.0 0.0 16.28999089631971 0.0 0.0 0.0 34.32429715621058" Properties=species:S:1:pos:R:3:initial_magmoms:R:1 pbc="T T T"
Si       0.48668004      -2.30205393       0.20072860       0.00000000
Si      -2.23383141       0.48887334       0.70804200       0.00000000
Si       1.40379075       1.19484285       1.59038287       0.00000000
Si       0.20443950       0.57674975      -2.38361782       0.00000000
Si      -1.08170487      -3.33195660      -1.22949701       0.00000000
Si       2.48033169       1.16604213      -2.55815697       0.00000000
Si       2.80987839      -2.53775394      -0.43293260       0.00000000
Si       1.60871895       3.36462524       0.82306278       0.00000000
Si      -0.15209973      -2.99501424       2.41437241       0.00000000
Si      -2.50646085       2.79871064       0.98459301       0.00000000
