10
Lattice="16.28999089631971 0.0 0.0 0.0 16.28999089631971 0.0 0.0 0.0 34.32429715621058" Properties=species:S:1:pos:R:3:initial_magmoms:R:1 pbc="T T T"
Si       1.44091566       0.81502128       1.58224801       0.00000000
Si      -1.99497114       1.19721726       0.15243429       0.00000000
Si       0.76442454       0.92281221      -2.02966547       0.00000000
Si      -0.53095626      -2.33834805      -0.02299729       0.00000000
Si      -3.18542805      -0.36590598      -1.13747352       0.00000000
Si       1.44062244      -3.21488037      -0.98977599       0.00000000
Si       1.35637056       3.19525879      -1.16119162       0.00000000
Si      -2.22496965      -2.54247804      -1.63452394       0.00000000
Si       1.45707534       3.21053094       1.45397804       0.00000000
Si       3.70853253       0.37450710       0.84166656       0.00000000
