10
Lattice="16.28999089631971 0.0 0.0 0.0 16.28999089631971 0.0 0.0 0.0 34.32429715621058" Properties=species:S:1:pos:R:3:initial_magmoms:R:1 pbc="T T T"
Si       1.35624024       1.35707526       1.35762968       0.00000000
Si      -1.35856971      -1.35575124       1.35756104       0.00000000
Si      -1.35801585       1.35779039      -1.35649698       0.00000000
Si       1.35752715      -1.35829248      -1.35663428       0.00000000
Si       0.00053757       2.71165718       2.71333721       0.00000000
Si      -2.71383255      -0.00022776       2.71323423       0.00000000
Si      -2.71401174       0.00107327      -2.71471018       0.00000000
Si      -0.00086337      -2.71518432      -2.71371477       0.00000000
Si      -0.00055386       2.71528985      -2.71381775       0.00000000
Si      -2.71487511       2.71431245       0.00024027       0.00000000
