10
Lattice="16.28999089631971 0.0 0.0 0.0 16.28999089631971 0.0 0.0 0.0 34.32429715621058" Properties=species:S:1:pos:R:3:initial_magmoms:R:1 pbc="T T T"
Si       1.35913986      -1.35799709      -1.35327050       0.00000000
Si      -1.35765747      -1.35576536       1.35766401       0.00000000
Si       1.35769005       1.35922608       1.35745806       0.00000000
Si      -1.35739683       1.36195466      -1.36192022       0.00000000
Si       2.69016318       0.01049482      -2.71050545       0.00000000
Si       2.71251306      -2.71076756       0.00130432       0.00000000
Si      -0.00003258      -2.71312961       2.71495045       0.00000000
Si      -2.71604799      -2.71265720       0.00058351       0.00000000
Si       2.71445157       0.00201960       2.71484748       0.00000000
Si      -2.71518462       0.00252712       2.71429829       0.00000000
