10
Lattice="16.28999089631971 0.0 0.0 0.0 16.28999089631971 0.0 0.0 0.0 34.32429715621058" Properties=species:S:1:pos:R:3:initial_magmoms:R:1 pbc="T T T"
Si      -1.34571690      -1.33196044      -1.38121049       0.00000000
Si       1.36886499       1.38481616      -1.37870481       0.00000000
Si      -1.44269127       1.32280013       1.36428860       0.00000000
Si       1.39870827      -1.37250159       1.49163182       0.00000000
Si       0.34933905       2.09983313       2.67856667       0.00000000
Si       2.28970611       0.54957899       2.74289044       0.00000000
Si      -2.68964190      -2.69925693      -0.00494270       0.00000000
Si       2.73862593      -2.68783764       0.00092676       0.00000000
Si       0.00737937      -2.69093274      -2.73815369       0.00000000
Si      -2.69446374       2.74144736      -0.03473621       0.00000000
