10
Lattice="16.28999089631971 0.0 0.0 0.0 16.28999089631971 0.0 0.0 0.0 34.32429715621058" Properties=species:S:1:pos:R:3:initial_magmoms:R:1 pbc="T T T"
Si       0.22382460      -2.25757964      -0.51397231       0.00000000
Si       0.40825998      -0.31272760       2.31881351       0.00000000
Si      -2.27831940       0.63903064      -0.38014180       0.00000000
Si       1.88659377       1.33012085      -0.68916362       0.00000000
Si       2.52165942      -2.45141435      -0.92648195       0.00000000
Si      -1.81296297      -0.43092520       3.13772305       0.00000000
Si      -2.07339120       2.80881302      -1.14746190       0.00000000
Si       3.51580554       0.84865687       0.92795789       0.00000000
Si      -0.31032450      -3.45461771       1.48061371       0.00000000
Si      -3.15618750       0.99013389       1.81400579       0.00000000
