10
Lattice="16.28999089631971 0.0 0.0 0.0 16.28999089631971 0.0 0.0 0.0 34.32429715621058" Properties=species:S:1:pos:R:3:initial_magmoms:R:1 pbc="T T T"
Si      -1.35715248      -1.35703845      -1.35728644       0.00000000
Si       1.35747828       1.35826020      -1.35687455       0.00000000
Si      -1.35519768       1.35943308       1.35855644       0.00000000
Si       1.35811359      -1.35681039       1.35872806       0.00000000
Si       0.01247814      -2.71274112       2.70410397       0.00000000
Si      -2.71322982      -2.71448415       0.00157892       0.00000000
Si       0.00001629      -2.71430496      -2.71392072       0.00000000
Si      -2.71432125       0.00058644      -2.71405802       0.00000000
Si       2.71528236       0.00043983      -2.71385207       0.00000000
Si       0.00004887       2.71578735      -2.71385207       0.00000000
