10
Lattice="16.28999089631971 0.0 0.0 0.0 16.28999089631971 0.0 0.0 0.0 34.32429715621058" Properties=species:S:1:pos:R:3:initial_magmoms:R:1 pbc="T T T"
Si      -2.13364791       0.86669316      -0.30047507       0.00000000
Si       0.45001125      -1.06073964      -2.03869277       0.00000000
Si      -0.68968602      -1.26157905       2.08025952       0.00000000
Si       1.42724835       2.12517711      -0.12325862       0.00000000
Si       2.92122054       0.68463612       1.21786107       0.00000000
Si      -2.10344625       2.18911536       1.58207639       0.00000000
Si      -1.53867195       0.65459736       3.22095952       0.00000000
Si       1.40962257       0.78117066      -3.30563761       0.00000000
Si       3.05038395       1.75857066      -1.88903875       0.00000000
Si       1.17892359      -2.42201349       2.99802309       0.00000000
