10
Lattice="16.28999089631971 0.0 0.0 0.0 16.28999089631971 0.0 0.0 0.0 34.32429715621058" Properties=species:S:1:pos:R:3:initial_magmoms:R:1 pbc="T T T"
Si      -0.03020166      -1.32242220      -1.88255145       0.00000000
Si      -2.30202135       0.22802742       0.02842053       0.00000000
Si       0.56477430      -1.53451800       1.63888313       0.00000000
Si       0.70586199       2.22532803       0.09713782       0.00000000
Si      -2.01484494       1.42325730      -2.19528030       0.00000000
Si       2.10344625      -2.18911536      -1.58207639       0.00000000
Si      -0.33713784       3.07605699      -1.78047094       0.00000000
Si      -2.53425159       1.03946490       2.29341352       0.00000000
Si      -0.62491698       0.03596832      -3.63484213       0.00000000
Si       1.41376023      -3.45069441       0.49818313       0.00000000
