10
Lattice="16.28999089631971 0.0 0.0 0.0 16.28999089631971 0.0 0.0 0.0 34.32429715621058" Properties=species:S:1:pos:R:3:initial_magmoms:R:1 pbc="T T T"
Si      -1.04299983       0.85072896      -1.87760875       0.00000000
Si      -0.70586199      -2.22532803      -0.09713782       0.00000000
Si      -0.71482149       1.48279725       1.73354960       0.00000000
Si       2.31422256       0.00447975      -0.86816493       0.00000000
Si      -0.42386580       3.35973105       0.31444506       0.00000000
Si      -3.00788334      -1.99730061      -0.06871728       0.00000000
Si      -2.72070693      -0.80207073      -2.29241812       0.00000000
Si       0.86094279       1.17923310       3.50416945       0.00000000
Si       0.97023240       0.88591536      -3.60209673       0.00000000
Si       3.67694622      -0.27748386       1.19160297       0.00000000
