10
Lattice="16.28999089631971 0.0 0.0 0.0 16.28999089631971 0.0 0.0 0.0 34.32429715621058" Properties=species:S:1:pos:R:3:initial_magmoms:R:1 pbc="T T T"
Si      -1.35827649       1.35589815       1.36198887       0.00000000
Si       1.35604476      -1.36080144       1.36137103       0.00000000
Si       1.38028428       1.34421822      -1.36877822       0.00000000
Si      -1.36026387      -1.37016819      -1.37670714       0.00000000
Si       2.71344159      -2.71311579       0.00212811       0.00000000
Si       2.71691136       2.71055826       0.00813486       0.00000000
Si      -2.71586880       2.71262709       0.00360405       0.00000000
Si      -2.71441899      -2.71425609       0.00133865       0.00000000
Si       0.00011403       2.71278999       2.71906937       0.00000000
Si       2.71492398      -0.00184077       2.71886342       0.00000000
