10
Lattice="16.28999089631971 0.0 0.0 0.0 16.28999089631971 0.0 0.0 0.0 34.32429715621058" Properties=species:S:1:pos:R:3:initial_magmoms:R:1 pbc="T T T"
Si       1.35658233      -1.35306369       1.36051293       0.00000000
Si      -1.35729909      -1.35575154      -1.35735509       0.00000000
Si       1.35804843       1.35923760      -1.35742374       0.00000000
Si      -1.35920502       1.35979146       1.35955185       0.00000000
Si       2.71397916      -2.71292031       0.00027459       0.00000000
Si      -0.00006516      -2.71269225      -2.71453856       0.00000000
Si      -2.71445157       0.00169416      -2.71460721       0.00000000
Si       2.71523349       0.00197109      -2.71491613       0.00000000
Si       2.71269225       0.00933417       2.71752477       0.00000000
Si      -2.71598283      -2.71441899       0.00003432       0.00000000
