10
Lattice="16.28999089631971 0.0 0.0 0.0 16.28999089631971 0.0 0.0 0.0 34.32429715621058" Properties=species:S:1:pos:R:3:initial_magmoms:R:1 pbc="T T T"
Si      -1.44244692       1.30588785       1.33298483       0.00000000
Si       1.34392500       1.36729648      -1.37626779       0.00000000
Si      -1.37639097      -1.34827443      -1.37365914       0.00000000
Si       1.47268116      -1.29332826       1.46273074       0.00000000
Si       2.68964190       2.69925693       0.00494270       0.00000000
Si       2.69550630      -2.69873172      -0.01568621       0.00000000
Si       2.69702127       0.00832419      -2.73321099       0.00000000
Si      -2.72732067      -2.70790299      -0.01139567       0.00000000
Si      -0.01718595      -2.70806589      -2.73321099       0.00000000
Si      -0.01804932       2.72390370      -2.73365720       0.00000000
