10
Lattice="16.28999089631971 0.0 0.0 0.0 16.28999089631971 0.0 0.0 0.0 34.32429715621058" Properties=species:S:1:pos:R:3:initial_magmoms:R:1 pbc="T T T"
Si       2.21003172      -0.55418580      -0.56854798       0.00000000
Si      -0.97920819      -0.67528566      -2.03028331       0.00000000
Si      -0.50784075      -1.39176873       1.90225361       0.00000000
Si      -0.83738745       2.31202734      -0.22297076       0.00000000
Si      -3.11327964       1.72273496      -0.04843161       0.00000000
Si       3.44180007       0.14931414       1.28060592       0.00000000
Si      -3.21294186       0.08887824      -1.89731091       0.00000000
Si       2.94699132       0.98305263      -2.20969651       0.00000000
Si      -0.40216752       0.77805927      -3.76318075       0.00000000
Si       0.58821561      -0.55578222       3.79173858       0.00000000
