10
Lattice="16.28999089631971 0.0 0.0 0.0 16.28999089631971 0.0 0.0 0.0 34.32429715621058" Properties=species:S:1:pos:R:3:initial_magmoms:R:1 pbc="T T T"
Si      -1.68026463       1.66702412       0.15700217       0.00000000
Si      -0.89477712      -1.77936063       1.30155165       0.00000000
Si       1.86928469       0.97549570       1.14616890       0.00000000
Si      -0.88645293       1.98384833      -2.10010279       0.00000000
Si      -0.29110230      -2.70596841      -1.61043209       0.00000000
Si       0.48744567       2.22860558       2.64213931       0.00000000
Si      -2.27644605      -0.47948221       2.65075814       0.00000000
Si      -2.18545011      -3.05514456      -0.16829594       0.00000000
Si      -1.47486402       0.06757581      -3.47709138       0.00000000
Si      -0.86825700       3.54635255       1.29590530       0.00000000
