10
Lattice="16.28999089631971 0.0 0.0 0.0 16.28999089631971 0.0 0.0 0.0 34.32429715621058" Properties=species:S:1:pos:R:3:initial_magmoms:R:1 pbc="T T T"
Si      -0.46082781       1.73789213      -1.47316533       0.00000000
Si      -0.04549797      -2.33016788      -0.39225829       0.00000000
Si      -1.23631326       0.55243625       1.94368306       0.00000000
Si       2.35168323       0.32723841      -0.00010297       0.00000000
Si       2.21061911      -2.70426773      -0.77624441       0.00000000
Si       0.39289851       0.07097227       3.56080458       0.00000000
Si      -2.08147104       3.01224254      -0.46155908       0.00000000
Si      -0.60124761      -3.22909895       1.70636474       0.00000000
Si      -1.65459159       2.88262301       1.83792984       0.00000000
Si      -0.78472188       0.87233927      -3.61455646       0.00000000
