10
Lattice="16.28999089631971 0.0 0.0 0.0 16.28999089631971 0.0 0.0 0.0 34.32429715621058" Properties=species:S:1:pos:R:3:initial_magmoms:R:1 pbc="T T T"
Si       1.34899002       1.35514881      -1.33758772       0.00000000
Si      -1.35666378       1.35391077       1.35625671       0.00000000
Si       1.35773063      -1.35879777       1.35570752       0.00000000
Si      -1.36798533      -1.37077092      -1.36952306       0.00000000
Si      -0.14486697       2.52959265      -2.70632475       0.00000000
Si       2.57859690      -0.06758721      -2.69130443       0.00000000
Si      -2.71125873      -2.71531494       0.00027459       0.00000000
Si       0.00057015       2.71340901       2.71326856       0.00000000
Si      -2.71438641      -0.00136836       2.71354315       0.00000000
Si       2.71517226      -0.00117288       2.71381775       0.00000000
