10
Lattice="16.28999089631971 0.0 0.0 0.0 16.28999089631971 0.0 0.0 0.0 34.32429715621058" Properties=species:S:1:pos:R:3:initial_magmoms:R:1 pbc="T T T"
Si      -0.60492915      -0.50956749      -2.19139620       0.00000000
Si      -1.93782582      -0.66712437       1.16847867       0.00000000
Si       0.70208271       1.95351309       1.26460735       0.00000000
Si       1.82285100      -1.71185094      -0.11474074       0.00000000
Si       1.05138918       1.17234243      -2.82893605       0.00000000
Si      -0.52103565      -1.94685048       2.60140904       0.00000000
Si       2.19593970       0.77906925       2.63334439       0.00000000
Si       0.87382818      -3.33070227       1.26128133       0.00000000
Si       3.42554658      -0.64366677       1.27962768       0.00000000
Si      -3.26151864      -2.05035714      -0.30963421       0.00000000
