10
Lattice="16.28999089631971 0.0 0.0 0.0 16.28999089631971 0.0 0.0 0.0 34.32429715621058" Properties=species:S:1:pos:R:3:initial_magmoms:R:1 pbc="T T T"
Si      -1.35721764      -1.35635427      -1.35653131       0.00000000
Si       1.35816246      -1.35601218       1.35759536       0.00000000
Si       1.35775085       1.35843939      -1.35673725       0.00000000
Si      -1.35532800       1.35858600       1.36349914       0.00000000
Si      -0.00913869      -2.70961344       2.70194153       0.00000000
Si       2.71282813      -2.71239903       0.00024027       0.00000000
Si      -0.00024435      -2.71360449      -2.71354315       0.00000000
Si       2.71421115       0.00164529      -2.71330288       0.00000000
Si      -2.71534752       0.00144981      -2.71357748       0.00000000
Si      -2.71562445      -2.71373481       0.00075513       0.00000000
