10
Lattice="16.28999089631971 0.0 0.0 0.0 16.28999089631971 0.0 0.0 0.0 34.32429715621058" Properties=species:S:1:pos:R:3:initial_magmoms:R:1 pbc="T T T"
Si       1.62313560      -0.36660645      -1.76578013       0.00000000
Si       1.49397219      -1.44054099       1.34111969       0.00000000
Si      -0.51061005       2.29374603       0.93430789       0.00000000
Si      -1.42724835      -2.12517711       0.12325862       0.00000000
Si      -0.01762578      -1.34400645      -3.18237899       0.00000000
Si       0.85211361       2.01178242       2.99407579       0.00000000
Si       0.75632841      -0.37890540       3.67658050       0.00000000
Si      -3.56089626      -1.25848395      -0.17721645       0.00000000
Si      -0.97723710      -3.18591675      -1.91543415       0.00000000
Si      -3.53069460       0.06393825       1.70533501       0.00000000
