10
Lattice="16.28999089631971 0.0 0.0 0.0 16.28999089631971 0.0 0.0 0.0 34.32429715621058" Properties=species:S:1:pos:R:3:initial_magmoms:R:1 pbc="T T T"
Si       0.88171254      -2.12765319       0.34001668       0.00000000
Si       1.66643590       0.66443652      -1.50745532       0.00000000
Si       0.35895015       0.93981897       2.11880572       0.00000000
Si      -2.09214099       0.18414216      -1.07095299       0.00000000
Si      -1.29736818      -0.74209095       2.75634557       0.00000000
Si      -0.74437155      -2.96578998       1.77676391       0.00000000
Si       1.06712532      -2.80676700      -1.87324956       0.00000000
Si      -0.16545753       3.16561941       1.64887151       0.00000000
Si      -1.35291708       0.03766248      -3.32183869       0.00000000
Si      -2.49945615       2.52250650      -0.83627764       0.00000000
