10
Lattice="16.28999089631971 0.0 0.0 0.0 16.28999089631971 0.0 0.0 0.0 34.32429715621058" Properties=species:S:1:pos:R:3:initial_magmoms:R:1 pbc="T T T"
Si      -2.08262763       0.42401241      -1.00776193       0.00000000
Si       0.83694762      -2.19844953      -0.23306211       0.00000000
Si      -0.73922391       0.14647968       2.25088569       0.00000000
Si       1.91695833       1.40315544      -0.11532970       0.00000000
Si       0.57937014       3.08959398       1.06717732       0.00000000
Si       3.01935298       0.62677404       1.81438336       0.00000000
Si       1.35291708      -0.03766248       3.32183869       0.00000000
Si      -1.14653907       2.48484402       2.48556104       0.00000000
Si      -1.00691748      -3.55341915      -0.74978037       0.00000000
Si      -3.77714601      -0.77051700       0.10561592       0.00000000
