10
Lattice="16.28999089631971 0.0 0.0 0.0 16.28999089631971 0.0 0.0 0.0 34.32429715621058" Properties=species:S:1:pos:R:3:initial_magmoms:R:1 pbc="T T T"
Si      -0.39829050       1.59244524       1.70073555       0.00000000
Si      -1.15339553      -0.18999027      -2.06632384       0.00000000
Si       0.46317357      -2.07593244       1.07376759       0.00000000
Si       1.95476742       0.81036234      -1.10198218       0.00000000
Si      -1.75872541      -2.91538872       0.69589119       0.00000000
Si       1.88169048       1.66239450       2.42515025       0.00000000
Si       3.32130294       0.76354488       0.81794846       0.00000000
Si      -0.76256259       2.14609347      -2.90088527       0.00000000
Si      -3.22370045      -1.09141371       1.49859965       0.00000000
Si       2.44514529      -0.81047637      -2.77079611       0.00000000
