10
Lattice="16.28999089631971 0.0 0.0 0.0 16.28999089631971 0.0 0.0 0.0 34.32429715621058" Properties=species:S:1:pos:R:3:initial_magmoms:R:1 pbc="T T T"
Si      -1.35337320       1.35277047      -1.35457482       0.00000000
Si       1.35936792       1.35526284       1.35635968       0.00000000
Si      -1.35536058      -1.35962856       1.35615374       0.00000000
Si       1.36239786      -1.36143675      -1.36449455       0.00000000
Si      -2.69000028      -0.01356957      -2.73148791       0.00000000
Si      -2.71251306       2.71076756      -0.00130432       0.00000000
Si      -2.71254564      -0.00236205       2.71364613       0.00000000
Si       0.00193851       2.71278716       2.71354315       0.00000000
Si       2.71650411       2.71124244      -0.00157892       0.00000000
Si       0.00193851      -2.71645524       2.71326856       0.00000000
