10
Lattice="16.28999089631971 0.0 0.0 0.0 16.28999089631971 0.0 0.0 0.0 34.32429715621058" Properties=species:S:1:pos:R:3:initial_magmoms:R:1 pbc="T T T"
Si       1.23176835       0.70349994       1.84915389       0.00000000
Si      -2.21003172       0.55418580       0.56854798       0.00000000
Si       0.73695960       1.53723843      -1.64114854       0.00000000
Si       0.78099147      -2.02245237      -1.07411083       0.00000000
Si      -3.18923991      -0.12109986      -1.46173534       0.00000000
Si      -0.23838786      -1.77490953      -3.15213927       0.00000000
Si       2.99923335      -1.38046347      -1.55286640       0.00000000
Si       3.02404302       0.97498908      -1.89816902       0.00000000
Si      -2.71787247      -0.83758293       2.47080159       0.00000000
Si      -0.38789748       0.54090945      -3.73767778       0.00000000
