10
Lattice="16.28999089631971 0.0 0.0 0.0 16.28999089631971 0.0 0.0 0.0 34.32429715621058" Properties=species:S:1:pos:R:3:initial_magmoms:R:1 pbc="T T T"
Si      -0.60557098       2.05767135      -0.88556736       0.00000000
Si       0.39829050      -1.59244524      -1.70073555       0.00000000
Si      -1.37619223       0.20567754       1.94495306       0.00000000
Si       2.27998098       0.06994926       0.72441470       0.00000000
Si       0.42173181      -0.09177786       3.44190515       0.00000000
Si       1.42908912       3.19223727      -0.82227332       0.00000000
Si      -2.27534552      -1.97297964       1.98895683       0.00000000
Si       2.15651907      -1.33538904       2.57113156       0.00000000
Si       2.35305792      -0.78208290      -2.80271773       0.00000000
Si       2.79678123       2.35004427       0.97789977       0.00000000
