10
Lattice="16.28999089631971 0.0 0.0 0.0 16.28999089631971 0.0 0.0 0.0 34.32429715621058" Properties=species:S:1:pos:R:3:initial_magmoms:R:1 pbc="T T T"
Si       1.45566951       1.43034345      -1.23018350       0.00000000
Si      -2.24873254       0.61048404      -0.65360363       0.00000000
Si       0.38855560      -1.99487340      -1.33741266       0.00000000
Si       0.83034528       0.78973920       2.20164510       0.00000000
Si      -1.47727072      -2.27370933       2.06059168       0.00000000
Si      -0.88265573       2.57134392       2.34110377       0.00000000
Si       0.12542486      -1.20552516       3.45496010       0.00000000
Si       3.63874128       0.40449699      -0.76659928       0.00000000
Si       1.00701033       3.67385112      -0.10976916       0.00000000
Si      -2.60768269      -0.32933493      -2.77240935       0.00000000
