10
Lattice="16.28999089631971 0.0 0.0 0.0 16.28999089631971 0.0 0.0 0.0 34.32429715621058" Properties=species:S:1:pos:R:3:initial_magmoms:R:1 pbc="T T T"
Si       1.35637871       1.35672079      -1.35759536       0.00000000
Si      -1.35798500       1.35769819       1.35670293       0.00000000
Si       1.35760045      -1.35808324       1.35670293       0.00000000
Si      -1.35819408      -1.35928551      -1.35828185       0.00000000
Si      -0.00005376       2.71173929      -2.71405802       0.00000000
Si       0.00034372      -2.71197453      -2.71467585       0.00000000
Si       2.71478551       2.71429681       0.00000000       0.00000000
Si      -0.00194828       2.71597468       2.71364613       0.00000000
Si      -2.71502076       2.71476922      -0.00013730       0.00000000
Si      -0.00009122      -2.71642170       2.71361180       0.00000000
