10
Lattice="16.28999089631971 0.0 0.0 0.0 16.28999089631971 0.0 0.0 0.0 34.32429715621058" Properties=species:S:1:pos:R:3:initial_magmoms:R:1 pbc="T T T"
Si       0.96126638       0.08861760       2.16092166       0.00000000
Si      -2.19446567      -0.61499637       0.66311147       0.00000000
Si       1.20256527      -1.41540552      -1.55513180       0.00000000
Si      -0.02727435       2.24627697      -0.99077139       0.00000000
Si      -2.34097793       1.98158076      -2.06889817       0.00000000
Si      -2.74813019       1.10410362       2.24810542       0.00000000
Si      -0.63466559       1.35435060       3.41341596       0.00000000
Si       2.36213145       2.46971061      -1.66380259       0.00000000
Si      -3.55718933      -0.33303276      -1.39665643       0.00000000
Si       3.55209966      -0.86382612      -1.22874188       0.00000000
