10
Lattice="16.28999089631971 0.0 0.0 0.0 16.28999089631971 0.0 0.0 0.0 34.32429715621058" Properties=species:S:1:pos:R:3:initial_magmoms:R:1 pbc="T T T"
Si       0.14766885       2.08437066       1.19383405       0.00000000
Si       0.36779562      -1.88731053       1.47251317       0.00000000
Si      -2.34953439      -0.55157940      -0.32638992       0.00000000
Si      -0.21952404      -1.01439459      -2.91025581       0.00000000
Si      -2.11840047       0.46265229      -2.77992638       0.00000000
Si      -1.18996821       3.33353673      -0.43506071       0.00000000
Si       0.85817349      -3.50814924      -0.19630077       0.00000000
Si      -3.55209966       0.86382612       1.22874188       0.00000000
Si      -2.74036733      -2.88766314       0.50817150       0.00000000
Si      -1.58697180      -2.69767287       2.57449535       0.00000000
