10
Lattice="16.28999089631971 0.0 0.0 0.0 16.28999089631971 0.0 0.0 0.0 34.32429715621058" Properties=species:S:1:pos:R:3:initial_magmoms:R:1 pbc="T T T"
Si      -2.31732485       0.15731253       0.48709637       0.00000000
Si       0.29944278       1.21202487      -2.02413926       0.00000000
Si       0.44865918      -2.24350767      -1.12041433       0.00000000
Si       1.11643515       1.26983808       1.98071900       0.00000000
Si      -1.88966606      -1.10250720       2.45087293       0.00000000
Si      -0.68371411       0.61809147       3.50252330       0.00000000
Si      -0.17666505      -2.88411192       2.31141426       0.00000000
Si       3.00837204      -0.39488589       2.12065924       0.00000000
Si      -1.00701033      -3.67385112       0.10976916       0.00000000
Si      -0.95071046       0.15656319      -3.70709481       0.00000000
