10
Lattice="16.28999089631971 0.0 0.0 0.0 16.28999089631971 0.0 0.0 0.0 34.32429715621058" Properties=species:S:1:pos:R:3:initial_magmoms:R:1 pbc="T T T"
Si       1.35758162       1.35630540       1.35673725       0.00000000
Si      -1.35765743       1.35746199      -1.35721779       0.00000000
Si       1.35814525      -1.35733167      -1.35738941       0.00000000
Si      -1.35793436      -1.35811359       1.35694320       0.00000000
Si       0.00236209      -2.71233387       2.71567126       0.00000000
Si      -0.00052124       2.71344159      -2.71515640       0.00000000
Si      -2.71508684      -2.71425609      -0.00030892       0.00000000
Si      -0.00096107       2.71334286       2.71632342       0.00000000
Si       2.71527329       2.71464386      -0.00017162       0.00000000
Si      -2.71508684       2.71498631      -0.00003432       0.00000000
