10
Lattice="16.28999089631971 0.0 0.0 0.0 16.28999089631971 0.0 0.0 0.0 34.40785480372833" Properties=species:S:1:pos:R:3:initial_magmoms:R:1 pbc="T T T"
Si      -1.35032697      -1.35680224       1.39562810       0.00000000
Si       1.36374993       1.35760860       1.39559369       0.00000000
Si       1.40633199      -1.41582091      -1.31221997       0.00000000
Si      -1.15561260       1.23062805      -2.04912309       0.00000000
Si      -2.67999822       2.68014483       0.05560312       0.00000000
Si      -2.72016936      -2.70770419       0.01890369       0.00000000
Si       2.72222190       2.71130760       0.00432851       0.00000000
Si       2.55345750       0.03556107      -2.90313482       0.00000000
Si      -2.70809847      -0.00498474       2.75996912       0.00000000
Si       0.00956223       2.71042794       2.76076050       0.00000000
