10
Lattice="16.28999089631971 0.0 0.0 0.0 16.28999089631971 0.0 0.0 0.0 34.40785480372833" Properties=species:S:1:pos:R:3:initial_magmoms:R:1 pbc="T T T"
Si       1.34286615      -1.31269885       1.35232579       0.00000000
Si      -1.40633199       1.41582091       1.31221997       0.00000000
Si      -0.77315598      -1.96656042      -1.13982895       0.00000000
Si       1.14712551       1.45138198      -1.59091485       0.00000000
Si      -0.60698169      -0.60460824      -2.99723347       0.00000000
Si      -1.17170712       1.77001439      -2.59627852       0.00000000
Si      -2.56194459       2.64644896      -0.73690312       0.00000000
Si       2.68226253      -2.63840889      -0.16148303       0.00000000
Si      -0.04106709      -2.66100312       2.71290603       0.00000000
Si       2.61037476       2.75705807      -0.20496082       0.00000000
