10
Lattice="16.28999089631971 0.0 0.0 0.0 16.28999089631971 0.0 0.0 0.0 34.40785480372833" Properties=species:S:1:pos:R:3:initial_magmoms:R:1 pbc="T T T"
Si      -0.15411969       2.02805287       1.24900583       0.00000000
Si       0.93098979      -1.06096118       1.92543022       0.00000000
Si      -2.06358462      -0.99605205      -0.73096088       0.00000000
Si       1.14805404       0.60609877      -2.04128153       0.00000000
Si       2.99468844       0.12607971       1.92904305       0.00000000
Si       0.08143371       2.65586947      -2.57831963       0.00000000
Si       0.29219373       3.69847834      -0.40604732       0.00000000
Si      -3.37921389      -1.24031475       1.20802605       0.00000000
Si       1.85386716       1.99254067       2.69220970       0.00000000
Si      -2.28889161       2.06284831       2.34121497       0.00000000
