10
Lattice="16.28999089631971 0.0 0.0 0.0 16.28999089631971 0.0 0.0 0.0 34.40785480372833" Properties=species:S:1:pos:R:3:initial_magmoms:R:1 pbc="T T T"
Si      -0.83401542      -1.76888223      -1.27759877       0.00000000
Si       1.78904925       0.92580957      -1.23310939       0.00000000
Si       1.01371041       0.32957928       2.21631439       0.00000000
Si      -1.99529694       1.49203368      -0.12648334       0.00000000
Si       0.83484621       2.78314650       1.49058351       0.00000000
Si      -0.89497260      -0.97941996       3.20413005       0.00000000
Si       0.44308800       2.26264842      -2.66451136       0.00000000
Si      -2.28871242      -0.47684088      -2.66399524       0.00000000
Si      -1.78328259       2.65626369       1.87140986       0.00000000
Si      -1.04353740       3.47198544      -1.28640719       0.00000000
