10
Lattice="16.28999089631971 0.0 0.0 0.0 16.28999089631971 0.0 0.0 0.0 34.40785480372833" Properties=species:S:1:pos:R:3:initial_magmoms:R:1 pbc="T T T"
Si       1.48662540      -1.20933702      -1.37810417       0.00000000
Si      -1.25397162       1.49584554      -1.35384662       0.00000000
Si       1.27671246       1.41319008       1.42775473       0.00000000
Si      -0.95175954      -1.97995176       1.15992384       0.00000000
Si      -0.73974519      -0.81572175       3.15781705       0.00000000
Si       1.87838361      -0.68883894       2.77699070       0.00000000
Si       0.12294063      -2.57048055      -2.73683671       0.00000000
Si      -2.59385670       0.14445972      -2.73546039       0.00000000
Si       2.83258665      -2.54617587       0.05329780       0.00000000
Si       2.63319705       2.75283081      -0.00034408       0.00000000
