10
Lattice="16.28999089631971 0.0 0.0 0.0 16.28999089631971 0.0 0.0 0.0 34.40785480372833" Properties=species:S:1:pos:R:3:initial_magmoms:R:1 pbc="T T T"
Si      -1.33156089      -1.33944525      -1.36778525       0.00000000
Si       1.35855342      -1.35224919       1.35670247       0.00000000
Si      -1.35619137       1.36238157       1.35673688       0.00000000
Si       1.35444834       1.36700793      -1.38063659       0.00000000
Si      -2.62891278       0.10090026      -2.66885363       0.00000000
Si       2.71393029      -2.71015101      -0.00653750       0.00000000
Si       0.00100998      -2.71098180       2.71354258       0.00000000
Si      -2.71393029       0.00389331       2.71330172       0.00000000
Si       2.71593396       0.00324171       2.71381784       0.00000000
Si      -2.71526607      -2.71463076      -0.00832671       0.00000000
