10
Lattice="16.28999089631971 0.0 0.0 0.0 16.28999089631971 0.0 0.0 0.0 34.40785480372833" Properties=species:S:1:pos:R:3:initial_magmoms:R:1 pbc="T T T"
Si      -1.17600768       1.48343256      -1.36279267       0.00000000
Si       1.17589365       1.43606124       1.43023210       0.00000000
Si      -1.35648459      -1.33964073       1.42809881       0.00000000
Si       1.53857421      -1.24232427      -1.37149786       0.00000000
Si       0.96707214      -0.50344245       3.18455197       0.00000000
Si      -2.51533890       0.10816560      -2.73680230       0.00000000
Si       0.20062764      -2.61169425      -2.74210111       0.00000000
Si      -2.63319705      -2.75283081       0.00034408       0.00000000
Si       2.80697877      -2.61951345       0.04645063       0.00000000
Si      -2.63832840       0.18669969       2.81387594       0.00000000
