10
Lattice="16.28999089631971 0.0 0.0 0.0 16.28999089631971 0.0 0.0 0.0 34.40785480372833" Properties=species:S:1:pos:R:3:initial_magmoms:R:1 pbc="T T T"
Si      -1.34149779       1.52187696      -1.21098513       0.00000000
Si      -1.47696543      -1.58535909       0.95492173       0.00000000
Si       1.28184381      -1.52634042      -1.38577713       0.00000000
Si       0.25371675      -1.01670777       2.62019402       0.00000000
Si       1.00364319       1.21352355       2.78060352       0.00000000
Si       2.23267482      -2.16127575       1.78284399       0.00000000
Si       3.03368670       1.85955237       0.77775558       0.00000000
Si       3.60540054      -0.69014214       0.37067603       0.00000000
Si      -2.62813086      -0.00619020      -2.66678228       0.00000000
Si      -0.73461384      -3.75525225       0.34428519       0.00000000
