10
Lattice="16.28999089631971 0.0 0.0 0.0 16.28999089631971 0.0 0.0 0.0 34.40785480372833" Properties=species:S:1:pos:R:3:initial_magmoms:R:1 pbc="T T T"
Si      -0.34915986      -1.46709369      -1.81938516       0.00000000
Si      -1.97895807       1.14456798       0.83735002       0.00000000
Si       1.37272572       1.47113361      -1.41216797       0.00000000
Si       0.78369561      -1.39843134       1.92976562       0.00000000
Si       2.61552240      -1.02382650      -0.96121837       0.00000000
Si      -0.95083101       0.63493533      -3.16862112       0.00000000
Si      -2.23267482       2.16127575      -1.78284399       0.00000000
Si       2.37120498       2.72341107       0.38485207       0.00000000
Si      -2.96728866      -1.59397650      -1.43855881       0.00000000
Si      -1.17765297      -1.44585153       3.19958821       0.00000000
