10
Lattice="16.28999089631971 0.0 0.0 0.0 16.28999089631971 0.0 0.0 0.0 34.40785480372833" Properties=species:S:1:pos:R:3:initial_magmoms:R:1 pbc="T T T"
Si       2.05889310       0.24306309      -1.13267281       0.00000000
Si      -1.34429967      -0.97969689      -1.74055672       0.00000000
Si       0.41746383      -1.77445341       1.57787629       0.00000000
Si      -1.05787260       2.02564521       0.77778999       0.00000000
Si       1.47128022       1.62212562      -2.92948640       0.00000000
Si      -3.43450215      -1.12752864      -0.69362833       0.00000000
Si      -0.60266484      -3.19121100      -1.80775529       0.00000000
Si       2.86070319      -1.90177605      -1.70105648       0.00000000
Si      -0.74213982       3.65032836      -0.90492709       0.00000000
Si      -0.10528227      -3.81821310       0.39682601       0.00000000
