10
Lattice="16.28999089631971 0.0 0.0 0.0 16.28999089631971 0.0 0.0 0.0 34.40785480372833" Properties=species:S:1:pos:R:3:initial_magmoms:R:1 pbc="T T T"
Si      -1.35213516      -1.35858600       1.36174667       0.00000000
Si       1.36155078       1.35404109       1.36026713       0.00000000
Si       1.30388418      -1.35876519      -1.43509393       0.00000000
Si      -1.38650706       1.38500838      -1.47225100       0.00000000
Si       0.62946189       2.04848379      -2.49246786       0.00000000
Si      -0.71161236      -2.13113925      -2.65452722       0.00000000
Si      -2.33808741      -0.44167077      -2.54953882       0.00000000
Si       2.27080971       0.34565751      -2.71897356       0.00000000
Si      -2.70765864      -0.00421911       2.71996309       0.00000000
Si       0.00790065       2.70945307       2.71899967       0.00000000
