10
Lattice="16.28999089631971 0.0 0.0 0.0 16.28999089631971 0.0 0.0 0.0 34.40785480372833" Properties=species:S:1:pos:R:3:initial_magmoms:R:1 pbc="T T T"
Si       1.11311199       1.63072674      -1.17014298       0.00000000
Si      -0.68652087      -1.44651942      -1.67666129       0.00000000
Si       1.55310489      -1.29650481       1.13580392       0.00000000
Si      -1.78216673       1.01144610       1.25461431       0.00000000
Si      -1.99528635      -0.85848300       2.69179680       0.00000000
Si       0.11126070      -1.93482194       2.88530668       0.00000000
Si      -0.71899662       2.99863062      -1.75751980       0.00000000
Si      -2.79250415      -0.56798343      -2.18032375       0.00000000
Si      -0.88468384       2.89909872       2.35642325       0.00000000
Si       0.65547702      -1.21727025      -3.61643960       0.00000000
