10
Lattice="16.28999089631971 0.0 0.0 0.0 16.28999089631971 0.0 0.0 0.0 34.40785480372833" Properties=species:S:1:pos:R:3:initial_magmoms:R:1 pbc="T T T"
Si      -1.86520500       0.35673471      -1.40325633       0.00000000
Si      -0.32703804      -2.10877308       1.06705699       0.00000000
Si      -0.19005543       1.63829737       1.73646218       0.00000000
Si       1.77194475      -0.78037245      -1.74595875       0.00000000
Si       1.02304458      -1.55224152       2.96279322       0.00000000
Si      -3.47680728       0.82092870       0.32955862       0.00000000
Si      -1.32312267       2.51588366      -2.41443493       0.00000000
Si       1.11114090      -3.57313005      -0.14186366       0.00000000
Si      -2.39785542       2.60169938       1.50988633       0.00000000
Si       0.67307022       0.65675808       3.76394616       0.00000000
