10
Lattice="16.28999089631971 0.0 0.0 0.0 16.28999089631971 0.0 0.0 0.0 34.40785480372833" Properties=species:S:1:pos:R:3:initial_magmoms:R:1 pbc="T T T"
Si      -1.23429330      -1.15868750      -1.61562658       0.00000000
Si       1.42902396      -1.30278542       1.32386360       0.00000000
Si      -1.31512428       1.44400587       1.31241266       0.00000000
Si       1.65385854       1.05188928      -1.30744863       0.00000000
Si      -2.65132782      -2.61579511      -0.18591951       0.00000000
Si      -2.27740716       0.58697268      -2.91982264       0.00000000
Si       2.66532093       2.66036388       0.02492850       0.00000000
Si       0.05880690      -2.63866627       2.69056844       0.00000000
Si      -2.65882122       0.07641313       2.69036199       0.00000000
Si       0.50741721      -2.21269906      -3.11360779       0.00000000
