10
Lattice="16.28999089631971 0.0 0.0 0.0 16.28999089631971 0.0 0.0 0.0 34.40785480372833" Properties=species:S:1:pos:R:3:initial_magmoms:R:1 pbc="T T T"
Si      -1.32770016      -1.34833959       1.37769128       0.00000000
Si       1.35821133      -1.35077006      -1.36096905       0.00000000
Si      -1.35580041       1.36285398      -1.36007444       0.00000000
Si       1.35975888       1.36907676       1.38319654       0.00000000
Si      -2.62580139       0.05326830       2.74564512       0.00000000
Si       2.71379997      -2.70746813      -0.00051612       0.00000000
Si      -2.71567332      -2.71132070       0.00010322       0.00000000
Si       0.00050499      -2.70986387      -2.71725863       0.00000000
Si       2.71578735       0.00454491      -2.71760271       0.00000000
Si      -2.71482624       0.00423540      -2.71870376       0.00000000
