10
Lattice="16.28999089631971 0.0 0.0 0.0 16.28999089631971 0.0 0.0 0.0 34.40785480372833" Properties=species:S:1:pos:R:3:initial_magmoms:R:1 pbc="T T T"
Si      -0.93856464      -2.18921473      -0.51969653       0.00000000
Si       1.80530667       0.95425191      -1.41292494       0.00000000
Si       1.28298411       0.57733389       2.06399073       0.00000000
Si      -0.03129309       0.27464940      -2.75665564       0.00000000
Si       3.43502343       1.33250571       1.21053782       0.00000000
Si       0.88234785      -3.65786153      -1.26916884       0.00000000
Si       0.28106766       2.47015044       3.18658203       0.00000000
Si       1.30007232      -1.24042160       3.65697208       0.00000000
Si       3.73562280      -0.69569703      -1.62821501       0.00000000
Si      -1.81648161      -3.38839235       1.59005667       0.00000000
