10
Lattice="16.28999089631971 0.0 0.0 0.0 16.28999089631971 0.0 0.0 0.0 34.40785480372833" Properties=species:S:1:pos:R:3:initial_magmoms:R:1 pbc="T T T"
Si       0.93856464       2.18921473       0.51969653       0.00000000
Si       1.82091249      -1.46864680      -0.74947231       0.00000000
Si      -0.87791697      -1.19917762       2.10975320       0.00000000
Si      -1.79087373      -0.34623890      -2.00443070       0.00000000
Si       0.90727155       2.46386413      -2.23695911       0.00000000
Si       0.63807930      -3.16090087      -2.11047577       0.00000000
Si       2.77620696      -2.37588577       1.33595453       0.00000000
Si       0.76574403      -2.96608876       2.44213327       0.00000000
Si      -3.75569208      -1.09400938      -0.68113827       0.00000000
Si      -3.16465830      -1.74619582       1.73794172       0.00000000
