10
Lattice="16.28999089631971 0.0 0.0 0.0 16.28999089631971 0.0 0.0 0.0 34.40785480372833" Properties=species:S:1:pos:R:3:initial_magmoms:R:1 pbc="T T T"
Si      -1.35537687       1.35790182       1.36323997       0.00000000
Si       1.36014984      -1.35874890       1.36231096       0.00000000
Si      -1.35830907      -1.35754344      -1.39267591       0.00000000
Si       1.35962856       1.36697535      -1.38911813       0.00000000
Si      -2.71393029       2.71015101       0.00653750       0.00000000
Si      -2.71678104      -2.71124244      -0.00141072       0.00000000
Si       2.71753038       2.71065600       0.00003441       0.00000000
Si       2.71661814      -2.71437012       0.00392250       0.00000000
Si      -2.71292031      -0.00083079       2.72008007       0.00000000
Si       0.00200367       2.71339272       2.72035534       0.00000000
