10
Lattice="16.28999089631971 0.0 0.0 0.0 16.28999089631971 0.0 0.0 0.0 34.40785480372833" Properties=species:S:1:pos:R:3:initial_magmoms:R:1 pbc="T T T"
Si      -1.35909099       1.35664749       1.35408747       0.00000000
Si       1.35731538       1.35671265      -1.35780353       0.00000000
Si       1.35783666      -1.35757602       1.35763149       0.00000000
Si      -1.35741312      -1.35760860      -1.35825083       0.00000000
Si      -2.70629028       0.00617391       2.71842850       0.00000000
Si      -2.71406061       2.71339272      -0.00003441       0.00000000
Si       2.71521720       2.71295289      -0.00044730       0.00000000
Si      -2.71339272      -2.71577106      -0.00037849       0.00000000
Si       0.00021177       2.71388142      -2.71540060       0.00000000
Si       2.71453302      -2.71531494       0.00017204       0.00000000
