10
Lattice="16.28999089631971 0.0 0.0 0.0 16.28999089631971 0.0 0.0 0.0 34.40785480372833" Properties=species:S:1:pos:R:3:initial_magmoms:R:1 pbc="T T T"
Si       1.35669636      -1.35773892      -1.35745945       0.00000000
Si      -1.35783666       1.35757602      -1.35763149       0.00000000
Si       1.34148150       1.35373158       1.38274923       0.00000000
Si      -1.35567009      -1.35197226       1.38526101       0.00000000
Si       0.18049320      -2.56103235       2.75404065       0.00000000
Si      -0.00052128       2.71428867      -2.71543501       0.00000000
Si      -2.71524978      -0.00003258      -2.71588231       0.00000000
Si      -2.71692765       2.71422351      -0.00354401       0.00000000
Si       2.71511946       0.00000000      -2.71622639       0.00000000
Si       0.00035838      -2.71650411      -2.71553823       0.00000000
