10
Lattice="16.28999089631971 0.0 0.0 0.0 16.28999089631971 0.0 0.0 0.0 34.40785480372833" Properties=species:S:1:pos:R:3:initial_magmoms:R:1 pbc="T T T"
Si       2.37390912      -0.08421930      -0.01613729       0.00000000
Si      -0.96423768      -1.40072823       1.67807202       0.00000000
Si      -0.65845809       2.23422237       0.55162704       0.00000000
Si      -1.61244936      -0.28800720      -2.47179285       0.00000000
Si       1.17336870       2.60882721      -2.33935695       0.00000000
Si       2.96013735      -0.43684893       2.24924273       0.00000000
Si       3.00470679       2.02548231      -0.93985108       0.00000000
Si      -3.05517321      -2.03001093       0.81694615       0.00000000
Si      -2.61980667       2.18680218       1.82144963       0.00000000
Si      -0.75347766      -0.35811936       3.85034433       0.00000000
