10
Lattice="16.28999089631971 0.0 0.0 0.0 16.28999089631971 0.0 0.0 0.0 34.40785480372833" Properties=species:S:1:pos:R:3:initial_magmoms:R:1 pbc="T T T"
Si       1.35790182       1.35624024       1.35735622       0.00000000
Si      -1.35731538      -1.35671265       1.35780353       0.00000000
Si      -1.35710361       1.35716877      -1.35759708       0.00000000
Si       1.35736425      -1.35716877      -1.35794116       0.00000000
Si      -2.71640637      -0.00006516       2.71189100       0.00000000
Si      -2.71472850      -2.71432125      -0.00044730       0.00000000
Si      -2.71448415       0.00167787      -2.71471245       0.00000000
Si       2.71448415      -0.00078192      -2.71491889       0.00000000
Si       0.00052128      -2.71428867       2.71543501       0.00000000
Si       2.71564074      -2.71428867      -0.00079138       0.00000000
