10
Lattice="16.28999089631971 0.0 0.0 0.0 16.28999089631971 0.0 0.0 0.0 34.40785480372833" Properties=species:S:1:pos:R:3:initial_magmoms:R:1 pbc="T T T"
Si      -0.80181009       2.14483914       0.56838367       0.00000000
Si       0.71601066      -0.82332918       2.09378795       0.00000000
Si      -1.50201945      -1.24201476      -1.37652141       0.00000000
Si       2.14855326       0.13742244      -1.05673463       0.00000000
Si      -3.46336803      -1.28943495      -0.10669882       0.00000000
Si       2.15862048       2.28973869      -2.07551737       0.00000000
Si       2.81600343       0.07700283       2.51346079       0.00000000
Si       1.09853244       3.36885345       1.32256986       0.00000000
Si       0.68044959      -3.15703458       2.04179765       0.00000000
Si      -2.86070319       1.90177605       1.70105648       0.00000000
