10
Lattice="16.28999089631971 0.0 0.0 0.0 16.28999089631971 0.0 0.0 0.0 34.40785480372833" Properties=species:S:1:pos:R:3:initial_magmoms:R:1 pbc="T T T"
Si      -1.62966789      -1.55163879       0.63530699       0.00000000
Si       0.42640704      -0.43034922      -2.29115152       0.00000000
Si       2.13545610      -0.39631941       1.01073130       0.00000000
Si      -1.21502223       2.03335038       0.48246721       0.00000000
Si       0.54366246       3.10287033      -0.89171446       0.00000000
Si      -2.75025699       0.16389369       1.81267562       0.00000000
Si      -0.17760987      -3.12033321       1.59852101       0.00000000
Si       2.74256811       2.18286000      -1.30309501       0.00000000
Si       2.85669585      -2.47466277       0.11977381       0.00000000
Si       0.49687758      -2.77426845      -2.55292662       0.00000000
