10
Lattice="16.28999089631971 0.0 0.0 0.0 16.28999089631971 0.0 0.0 0.0 34.40785480372833" Properties=species:S:1:pos:R:3:initial_magmoms:R:1 pbc="T T T"
Si      -1.35429312       1.35770534      -1.35508530       0.00000000
Si      -1.35558003      -1.35800286       1.35776912       0.00000000
Si       1.35914263       1.35704071       1.35773471       0.00000000
Si       1.36324934      -1.36319937      -1.36096905       0.00000000
Si      -0.00756624       2.71263098      -2.69733647       0.00000000
Si      -2.69908149      -0.02173105      -2.72347613       0.00000000
Si      -2.71271622       2.71359209       0.00048171       0.00000000
Si      -2.71313976       0.00018646       2.71512534       0.00000000
Si       2.71386464       2.71450433       0.00041289       0.00000000
Si       0.00163571       2.71460207       2.71491889       0.00000000
