10
Lattice="16.28999089631971 0.0 0.0 0.0 16.28999089631971 0.0 0.0 0.0 34.40785480372833" Properties=species:S:1:pos:R:3:initial_magmoms:R:1 pbc="T T T"
Si      -1.35721764       1.35739683      -1.35732181       0.00000000
Si      -1.35689184      -1.35769005       1.35763149       0.00000000
Si       1.35782037      -1.35773892      -1.35735622       0.00000000
Si       1.35819504       1.35928647       1.35663366       0.00000000
Si       2.71309950       0.00013032      -2.71478126       0.00000000
Si      -2.71453302       2.71451784       0.00055053       0.00000000
Si      -2.71471221       0.00138465      -2.71529738       0.00000000
Si      -2.71533123      -2.71484253      -0.00030967       0.00000000
Si       2.71511946       2.71534179       0.00003441       0.00000000
Si       0.00136836       2.71644425      -2.71402429       0.00000000
