10
Lattice="16.28999089631971 0.0 0.0 0.0 16.28999089631971 0.0 0.0 0.0 34.40785480372833" Properties=species:S:1:pos:R:3:initial_magmoms:R:1 pbc="T T T"
Si       2.22312888      -0.31187205       0.58324787       0.00000000
Si      -1.10242575      -0.86043780       1.94552442       0.00000000
Si      -0.04233771      -1.93955256      -1.45256281       0.00000000
Si      -0.33982569       2.48922603      -0.08078969       0.00000000
Si      -1.12449870       0.87478929      -2.58547647       0.00000000
Si      -2.11546827      -1.34946360      -2.29848039       0.00000000
Si      -2.04612174       1.19557197       2.49780521       0.00000000
Si       0.03018537       2.55562407       2.49199028       0.00000000
Si       3.29709600       1.57652991      -0.01761683       0.00000000
Si      -3.59038116      -0.70538958      -0.60547536       0.00000000
