10
Lattice="16.28999089631971 0.0 0.0 0.0 16.28999089631971 0.0 0.0 0.0 34.40785480372833" Properties=species:S:1:pos:R:3:initial_magmoms:R:1 pbc="T T T"
Si      -2.25686547       0.69348159      -0.35646557       0.00000000
Si       0.33982569      -2.48922603       0.08078969       0.00000000
Si       0.68821992       2.30044515      -0.77015144       0.00000000
Si       0.37001106       0.06639804       2.57277997       0.00000000
Si       2.57606802       0.56273805       1.50582620       0.00000000
Si      -0.78467301      -1.61443674      -2.50468678       0.00000000
Si      -1.70629605      -1.29365406       2.57859490       0.00000000
Si      -3.22040268      -1.15720902       0.71864286       0.00000000
Si      -0.36427698       3.37452956       1.01489465       0.00000000
Si       2.90497941       2.33100845      -0.09303889       0.00000000
