10
Lattice="16.28999089631971 0.0 0.0 0.0 16.28999089631971 0.0 0.0 0.0 34.40785480372833" Properties=species:S:1:pos:R:3:initial_magmoms:R:1 pbc="T T T"
Si      -0.93770127       0.57452549       2.09832979       0.00000000
Si       2.04390630       0.73074659      -0.95127449       0.00000000
Si      -0.23312619      -2.09214981      -1.12021715       0.00000000
Si      -1.99045881       0.83694436      -1.03760385       0.00000000
Si      -0.86415192       1.09012517      -3.04705810       0.00000000
Si      -2.12226120      -1.57100013       2.13507740       0.00000000
Si       1.25006202       2.11059593      -2.66330708       0.00000000
Si      -1.99181088      -3.16166976       0.25396452       0.00000000
Si      -0.86477094      -1.26137610      -3.42585439       0.00000000
Si       2.63795373      -0.97861428      -2.48817100       0.00000000
