10
Lattice="16.28999089631971 0.0 0.0 0.0 16.28999089631971 0.0 0.0 0.0 34.40785480372833" Properties=species:S:1:pos:R:3:initial_magmoms:R:1 pbc="T T T"
Si       1.35664586       1.35852084      -1.35601432       0.00000000
Si       1.35728117      -1.35738054       1.35735622       0.00000000
Si      -1.35822396      -1.35883035      -1.35587668       0.00000000
Si      -1.35897283       1.35788553       1.35745945       0.00000000
Si      -2.71494909      -0.00167787       2.71275120       0.00000000
Si       2.71422188      -2.71441899      -0.00037849       0.00000000
Si      -0.00092527       2.71518462       2.71467804       0.00000000
Si      -2.71516086       2.71511946      -0.00027526       0.00000000
Si       2.71498751       2.71544526      -0.00003441       0.00000000
Si       0.00070861      -2.71445157       2.71629521       0.00000000
