10
Lattice="16.28999089631971 0.0 0.0 0.0 16.28999089631971 0.0 0.0 0.0 34.40785480372833" Properties=species:S:1:pos:R:3:initial_magmoms:R:1 pbc="T T T"
Si      -2.01205935       0.84455505       0.86731928       0.00000000
Si      -0.41796882      -2.19763503       0.75862481       0.00000000
Si       0.38231475      -0.38574720      -2.34448372       0.00000000
Si       1.65553871       1.36897902       1.18142876       0.00000000
Si      -1.52213760      -0.13207932       3.06457171       0.00000000
Si       1.68801445      -3.07617102       1.26228727       0.00000000
Si       0.46058739       1.78510707      -3.30735367       0.00000000
Si      -1.47012363      -3.50344143      -0.81749668       0.00000000
Si       2.64934763      -1.16949168      -2.60914909       0.00000000
Si       3.48764732       0.00107514       1.76880558       0.00000000
