10
Lattice="16.28999089631971 0.0 0.0 0.0 16.28999089631971 0.0 0.0 0.0 34.40785480372833" Properties=species:S:1:pos:R:3:initial_magmoms:R:1 pbc="T T T"
Si      -1.52552592      -0.97318089       1.55201330       0.00000000
Si      -1.55385423       0.72505161      -1.79973826       0.00000000
Si       1.25107200       1.72410102       1.34528736       0.00000000
Si       1.07735544      -2.11963851      -0.97071494       0.00000000
Si      -2.96862444      -2.17302084      -0.11764052       0.00000000
Si      -0.13201416      -2.26530369       3.06216457       0.00000000
Si       2.85225912      -2.72655504       0.51169158       0.00000000
Si       2.57891877       0.45906849       3.05238241       0.00000000
Si      -0.31864869       0.90500724      -3.94472513       0.00000000
Si       2.96018526       2.81709486       0.00846434       0.00000000
