10
Lattice="16.28999089631971 0.0 0.0 0.0 16.28999089631971 0.0 0.0 0.0 34.40785480372833" Properties=species:S:1:pos:R:3:initial_magmoms:R:1 pbc="T T T"
Si       1.34459289       1.35980775       1.39851492       0.00000000
Si      -1.37042883      -1.35539316       1.39885900       0.00000000
Si      -1.20440115       1.52503722      -1.42455136       0.00000000
Si       1.35303111      -1.43213535      -1.68774063       0.00000000
Si       2.68087788      -2.69716788       0.01935443       0.00000000
Si      -2.72833065      -2.69907381       0.00970646       0.00000000
Si       2.70858717       2.72292237       0.01109998       0.00000000
Si      -2.72541474       2.72653875       0.01479539       0.00000000
Si       2.70353727       0.00617391       2.76192693       0.00000000
Si      -0.01436778      -2.71060713       2.76185811       0.00000000
