10
Lattice="16.28999089631971 0.0 0.0 0.0 16.28999089631971 0.0 0.0 0.0 34.40785480372833" Properties=species:S:1:pos:R:3:initial_magmoms:R:1 pbc="T T T"
Si      -1.07580789       1.37337732       1.54611782       0.00000000
Si       0.36802368      -1.87049925       1.37727838       0.00000000
Si       2.11522296       0.79949691      -0.80810333       0.00000000
Si      -1.49749083      -0.49612824      -1.89047182       0.00000000
Si       1.85005434      -2.80898244      -0.22086414       0.00000000
Si      -3.34127448      -0.25430319      -0.48969286       0.00000000
Si      -0.00184077       3.26177928       0.94525312       0.00000000
Si       1.15498122      -0.60914826       3.26210731       0.00000000
Si       2.49703450      -1.22948775      -2.16848745       0.00000000
Si      -0.86359806       1.39488012      -3.14690975       0.00000000
