10
Lattice="16.28999089631971 0.0 0.0 0.0 16.28999089631971 0.0 0.0 0.0 34.40785480372833" Properties=species:S:1:pos:R:3:initial_magmoms:R:1 pbc="T T T"
Si      -0.39807873       0.56850471      -2.18737737       0.00000000
Si       0.23952816       1.68521679       1.61562173       0.00000000
Si      -2.07663291      -0.92799243       0.62756521       0.00000000
Si       1.83271038      -1.41402087      -0.47138787       0.00000000
Si       2.06617540      -2.54896146       1.53669006       0.00000000
Si       1.04575284      -2.67537186      -2.35621681       0.00000000
Si       0.67588839       2.45690667      -2.78824207       0.00000000
Si      -3.72363336       0.01993896      -0.82510082       0.00000000
Si       1.29663513       0.70035597       3.51854920       0.00000000
Si      -1.95937749       2.60522712       2.02700227       0.00000000
