10
Lattice="16.28999089631971 0.0 0.0 0.0 16.28999089631971 0.0 0.0 0.0 34.40785480372833" Properties=species:S:1:pos:R:3:initial_magmoms:R:1 pbc="T T T"
Si      -1.33089701      -1.34829072       1.37060325       0.00000000
Si      -1.34857166       1.34882829      -1.35708096       0.00000000
Si       1.36708604      -1.36394541      -1.35353695       0.00000000
Si       1.35268731       1.36391283       1.40019403       0.00000000
Si       0.36560290      -2.35312308       2.71970159       0.00000000
Si       2.43384321      -0.32853672       2.71653606       0.00000000
Si      -2.70240098       2.70744687       0.00584934       0.00000000
Si      -2.70601736      -0.00615762      -2.71254475       0.00000000
Si       0.00740460       2.70839169      -2.71237271       0.00000000
Si      -2.70743459      -2.72534958       0.00629664       0.00000000
