10
Lattice="16.28999089631971 0.0 0.0 0.0 16.28999089631971 0.0 0.0 0.0 34.40785480372833" Properties=species:S:1:pos:R:3:initial_magmoms:R:1 pbc="T T T"
Si       1.07396712       1.88840196      -0.60086470       0.00000000
Si       0.39807873      -0.56850471       2.18737737       0.00000000
Si      -2.22312888       0.31187205      -0.58324787       0.00000000
Si       1.07580789      -1.37337732      -1.54611782       0.00000000
Si       2.23078911      -1.98252558       1.71598949       0.00000000
Si      -2.26546659      -1.62768051      -2.03581068       0.00000000
Si       0.01311345       3.36383613       0.84178864       0.00000000
Si       1.44383157      -3.24387657      -0.16883944       0.00000000
Si      -1.67855418      -1.49649714       2.81494258       0.00000000
Si      -3.32555463      -0.54856575       1.36227655       0.00000000
