10
Lattice="16.28999089631971 0.0 0.0 0.0 16.28999089631971 0.0 0.0 0.0 34.40785480372833" Properties=species:S:1:pos:R:3:initial_magmoms:R:1 pbc="T T T"
Si       0.67217427       2.03354586      -0.95657331       0.00000000
Si      -0.23952816      -1.68521679      -1.61562173       0.00000000
Si       1.05710697      -0.98486082       1.90292747       0.00000000
Si      -2.19890565       0.92001033       0.41138054       0.00000000
Si       1.04405868       1.15864254       2.95487941       0.00000000
Si      -0.60711201      -2.57917941       2.31382631       0.00000000
Si      -2.31616107      -2.61320922      -0.98805651       0.00000000
Si      -2.74256811      -2.18286000       1.30309501       0.00000000
Si      -0.62449344       2.24712405      -2.96121045       0.00000000
Si       0.07812684       3.74290673       0.58032320       0.00000000
