10
Lattice="16.28999089631971 0.0 0.0 0.0 16.28999089631971 0.0 0.0 0.0 34.40785480372833" Properties=species:S:1:pos:R:3:initial_magmoms:R:1 pbc="T T T"
Si      -2.16049776      -0.31796451      -0.83232647       0.00000000
Si       0.65312637       1.68697611       1.47995148       0.00000000
Si      -0.07827264      -2.17085427       0.96286995       0.00000000
Si      -2.01251940      -2.74618449      -0.63368982       0.00000000
Si       1.30010653       3.26647080      -0.46767182       0.00000000
Si      -2.00966865       0.47987082      -3.06209434       0.00000000
Si       2.18876024      -2.95459875       0.69820458       0.00000000
Si      -0.46058739      -1.78510707       3.30735367       0.00000000
Si       2.31087008       1.01913498       2.99317537       0.00000000
Si       3.79661582      -1.17869553       0.11554164       0.00000000
