10
Lattice="16.28999089631971 0.0 0.0 0.0 16.28999089631971 0.0 0.0 0.0 34.40785480372833" Properties=species:S:1:pos:R:3:initial_magmoms:R:1 pbc="T T T"
Si       1.11591876       1.43526303      -1.49560706       0.00000000
Si       1.83210861      -1.36790388       0.58737682       0.00000000
Si       0.10546146       1.15825158       2.12203682       0.00000000
Si      -1.65553871      -1.36897902      -1.18142876       0.00000000
Si       0.71899662      -2.99863062       1.75751980       0.00000000
Si       2.27726544       2.01052809       1.90409734       0.00000000
Si       2.69103144      -1.95338277      -1.47898806       0.00000000
Si      -0.54182495       2.10310416      -3.00883095       0.00000000
Si      -3.66759806      -0.52442397      -0.31410948       0.00000000
Si       2.96959044       0.22157658      -2.28925908       0.00000000
