10
Lattice="16.28999089631971 0.0 0.0 0.0 16.28999089631971 0.0 0.0 0.0 34.40785480372833" Properties=species:S:1:pos:R:3:initial_magmoms:R:1 pbc="T T T"
Si       1.35505107       1.35953198       1.35563583       0.00000000
Si       1.35638685      -1.35774983      -1.35653043       0.00000000
Si      -1.35597471      -1.35781499       1.35790675       0.00000000
Si      -1.35884338       1.35747293      -1.35697774       0.00000000
Si       0.00366525       2.70908844       2.71096199       0.00000000
Si       2.71388142       2.71389399      -0.00051612       0.00000000
Si       0.00003258      -2.71516295      -2.71388666       0.00000000
Si       2.71391400      -2.71524440       0.00055053       0.00000000
Si      -0.00412137       2.71493655      -2.71429955       0.00000000
Si       2.71559187      -0.00149077      -2.71485008       0.00000000
