10
Lattice="16.28999089631971 0.0 0.0 0.0 16.28999089631971 0.0 0.0 0.0 34.40785480372833" Properties=species:S:1:pos:R:3:initial_magmoms:R:1 pbc="T T T"
Si      -1.91317905       1.33217991       0.24391742       0.00000000
Si       1.73851767       0.16386111       1.59232759       0.00000000
Si       0.75649131       1.21616253      -1.90265221       0.00000000
Si      -0.31253994      -2.30265666      -0.55135177       0.00000000
Si      -1.40395365      -0.55544013       2.67968523       0.00000000
Si      -2.31729160      -1.84339269      -1.75087908       0.00000000
Si      -3.56057698      -0.26409348      -0.38024142       0.00000000
Si       0.88531263      -1.36891386       3.21968240       0.00000000
Si       3.60282672      -0.18373491       0.24749584       0.00000000
Si       1.59920559      -2.62941777      -1.91923681       0.00000000
