10
Lattice="16.28999089631971 0.0 0.0 0.0 16.28999089631971 0.0 0.0 0.0 34.40785480372833" Properties=species:S:1:pos:R:3:initial_magmoms:R:1 pbc="T T T"
Si      -0.89748289      -1.88765262      -1.10180894       0.00000000
Si       0.27114868       1.25778348      -1.99190624       0.00000000
Si       2.00475166      -0.45926397       1.19952730       0.00000000
Si      -1.24328538       1.57929921       1.37063766       0.00000000
Si       2.31729160       1.84339269       1.75087908       0.00000000
Si      -0.83774583       3.26752965      -1.63172461       0.00000000
Si       0.40411255       3.17557260       1.99479650       0.00000000
Si      -2.55026533       2.84418513      -0.12992413       0.00000000
Si       0.88468384      -2.89909872      -2.35642325       0.00000000
Si       2.44295266       2.11005999      -2.20984571       0.00000000
