10
Lattice="16.28999089631971 0.0 0.0 0.0 16.28999089631971 0.0 0.0 0.0 34.40785480372833" Properties=species:S:1:pos:R:3:initial_magmoms:R:1 pbc="T T T"
Si      -1.35801163       1.35728280       1.35666807       0.00000000
Si      -1.35804756      -1.35729909      -1.35721859       0.00000000
Si       1.35835305       1.35793440      -1.35670247       0.00000000
Si       1.35879288      -1.35430173       1.36227655       0.00000000
Si      -2.71368172       2.71402803       0.00116987       0.00000000
Si       0.01708658       2.71347417       2.71526297       0.00000000
Si       0.00116148       2.71484253      -2.71416192       0.00000000
Si      -2.71423558      -0.00006516      -2.71495330       0.00000000
Si       0.00092527      -2.71518462      -2.71467804       0.00000000
Si       2.71451184       2.71554300      -0.00048171       0.00000000
