10
Lattice="16.28999089631971 0.0 0.0 0.0 16.28999089631971 0.0 0.0 0.0 34.40785480372833" Properties=species:S:1:pos:R:3:initial_magmoms:R:1 pbc="T T T"
Si       1.15287588      -2.04867927      -0.27743069       0.00000000
Si      -2.18703350      -0.88803306       0.39142397       0.00000000
Si       0.22851612       1.39041666      -1.93919337       0.00000000
Si       1.19169495       1.08234018       1.78136445       0.00000000
Si      -1.95356848      -2.02297365       2.39950191       0.00000000
Si      -1.04941320       3.34454877      -1.56390669       0.00000000
Si       3.52950543       1.10449458       1.19398764       0.00000000
Si       1.32713001      -3.18044331       1.82138081       0.00000000
Si      -1.22679175       0.52061211      -3.67878667       0.00000000
Si      -2.97399104      -2.14938405      -1.49340496       0.00000000
