10
Lattice="16.28999089631971 0.0 0.0 0.0 16.28999089631971 0.0 0.0 0.0 34.40785480372833" Properties=species:S:1:pos:R:3:initial_magmoms:R:1 pbc="T T T"
Si       2.09020248       0.14783175      -1.04692838       0.00000000
Si      -0.98709255      -1.70702910      -1.30089290       0.00000000
Si      -1.15287588       2.04867927       0.27743069       0.00000000
Si       0.17425413      -1.13176404       2.09881150       0.00000000
Si      -3.33990938       1.16064621       0.66885466       0.00000000
Si      -1.99754985      -1.98404055       2.31675097       0.00000000
Si       2.83183731      -2.06368236      -1.11412696       0.00000000
Si       3.43450215       1.12752864       0.69362833       0.00000000
Si       0.86657913      -2.92071555      -2.09454492       0.00000000
Si       0.03881907       3.13101945       2.05879514       0.00000000
