10
Lattice="16.28999089631971 0.0 0.0 0.0 16.28999089631971 0.0 0.0 0.0 34.40785480372833" Properties=species:S:1:pos:R:3:initial_magmoms:R:1 pbc="T T T"
Si      -1.35747750       1.35742941      -1.35749385       0.00000000
Si       1.35798472      -1.35759231      -1.35742504       0.00000000
Si      -1.35685848      -1.35840681       1.35790675       0.00000000
Si       1.36011382       1.35718506       1.35735622       0.00000000
Si      -0.00118839      -2.71515204       2.71340495       0.00000000
Si       0.00210219      -2.71399545      -2.71471245       0.00000000
Si       2.71517630      -2.71450044       0.00003441       0.00000000
Si       2.71688675      -0.00337203       2.71288883       0.00000000
Si      -2.71495578      -2.71511946       0.00020645       0.00000000
Si       2.71612112      -0.00016290      -2.71443718       0.00000000
