10
Lattice="10.86 0.0 0.0 0.0 10.86 0.0 0.0 0.0 10.86" Properties=species:S:1:pos:R:3:initial_magmoms:R:1 pbc="T T T"
Si       1.30348236       1.33116450       1.29705324       0.00000000
Si       1.30348236      -1.38383550      -1.41794676       0.00000000
Si      -1.41151764       1.33116450      -1.41794676       0.00000000
Si       2.66098236      -0.02633550       2.65455324       0.00000000
Si       2.66098236       2.68866450      -0.06044676       0.00000000
Si       2.66098236      -2.74133550      -0.06044676       0.00000000
Si      -2.73844674       2.66654268       0.05570094       0.00000000
Si       2.66098236      -0.02633550      -2.77544676       0.00000000
Si      -0.05401764       2.68866450      -2.77544676       0.00000000
Si      -0.05401764      -2.74133550      -2.77544676       0.00000000
