10
Lattice="16.28999089631971 0.0 0.0 0.0 16.28999089631971 0.0 0.0 0.0 34.51007289658418" Properties=species:S:1:pos:R:3:initial_magmoms:R:1 pbc="T T T"
Si       1.40335744       1.85855868      -0.02032644       0.00000000
Si      -1.64639839       0.70393977       1.51654600       0.00000000
Si       1.49073700      -1.43944956       1.11512461       0.00000000
Si      -1.21954515      -0.82098342      -1.85605629       0.00000000
Si       0.19856370      -1.70541639       3.02115151       0.00000000
Si      -3.35707645      -0.81441855       1.10087194       0.00000000
Si      -0.69318023       0.37204731       3.62773540       0.00000000
Si       0.37316155       3.60070902      -1.19332448       0.00000000
Si      -0.19375000      -2.74642884      -2.68405693       0.00000000
Si      -3.27808624      -1.71769905      -1.05207467       0.00000000
