10
Lattice="16.28999089631971 0.0 0.0 0.0 16.28999089631971 0.0 0.0 0.0 34.51007289658418" Properties=species:S:1:pos:R:3:initial_magmoms:R:1 pbc="T T T"
Si      -0.93830400      -2.07736596      -0.44635353       0.00000000
Si       1.60267536      -0.75502521       1.57562728       0.00000000
Si       0.39578184       1.56110328      -1.78596629       0.00000000
Si      -1.22326497       1.05158466       1.94636920       0.00000000
Si       0.79969239       2.77299783       1.68768155       0.00000000
Si       2.65118121       1.26873036       1.69831066       0.00000000
Si       3.19332870       0.97704162      -0.61462474       0.00000000
Si       2.65805559      -2.30712012       0.19829499       0.00000000
Si       0.64146762      -3.55913694       0.43096203       0.00000000
Si       1.03449645       3.49075152      -0.55350737       0.00000000
