10
Lattice="16.28999089631971 0.0 0.0 0.0 16.28999089631971 0.0 0.0 0.0 34.51007289658418" Properties=species:S:1:pos:R:3:initial_magmoms:R:1 pbc="T T T"
Si       1.56708171      -1.13930582       1.39647504       0.00000000
Si      -1.16419743       1.59951184       1.38283665       0.00000000
Si       1.86724125       1.21961275      -1.18389114       0.00000000
Si      -2.30436711      -2.32812837      -0.01702728       0.00000000
Si      -1.84684617      -0.21888710      -2.78399267       0.00000000
Si       0.47174211       0.77369029      -3.33139176       0.00000000
Si       0.21354561      -2.47749138       2.77901490       0.00000000
Si      -2.51141301       0.24889980       2.77269955       0.00000000
Si       3.08079738      -2.48350239      -0.09853667       0.00000000
Si      -2.67991677       2.96454868      -0.11357616       0.00000000
