10
Lattice="16.28999089631971 0.0 0.0 0.0 16.28999089631971 0.0 0.0 0.0 34.51007289658418" Properties=species:S:1:pos:R:3:initial_magmoms:R:1 pbc="T T T"
Si       1.35716877       1.35661002      -1.35738546       0.00000000
Si      -1.35760860       1.35766887       1.35693682       0.00000000
Si       1.35801585      -1.35759524       1.35672976       0.00000000
Si      -1.35622395      -1.35925708      -1.35741997       0.00000000
Si       2.71428867      -0.00090735       2.71370110       0.00000000
Si      -2.71467963      -0.00110935       2.71335600       0.00000000
Si      -0.00027693      -2.71438219       2.71501248       0.00000000
Si      -2.71446786      -2.71526185       0.00013804       0.00000000
Si       2.71507059       2.71508199      -0.00034510       0.00000000
Si       2.71489140      -2.71548991       0.00003451       0.00000000
