10
Lattice="16.28999089631971 0.0 0.0 0.0 16.28999089631971 0.0 0.0 0.0 34.51007289658418" Properties=species:S:1:pos:R:3:initial_magmoms:R:1 pbc="T T T"
Si       1.35348723      -1.35613273      -1.35690231       0.00000000
Si       1.36423863       1.35203742       1.35058697       0.00000000
Si      -1.36052451       1.36006839      -1.35548740       0.00000000
Si      -1.37064060      -1.36705680       1.36798005       0.00000000
Si      -0.04274496       2.64917754       2.64164403       0.00000000
Si      -2.54282013       0.09115884       2.82264946       0.00000000
Si       2.71179630      -2.71212929       0.00200159       0.00000000
Si       2.71151937       0.00206883      -2.71377012       0.00000000
Si      -0.00278559      -2.71282061      -2.71387365       0.00000000
Si       2.70946683       2.72054403       0.00096628       0.00000000
