10
Lattice="16.28999089631971 0.0 0.0 0.0 16.28999089631971 0.0 0.0 0.0 34.51007289658418" Properties=species:S:1:pos:R:3:initial_magmoms:R:1 pbc="T T T"
Si      -1.82689092      -0.94838751       1.09362482       0.00000000
Si       1.17217953      -1.45821564      -1.45466941       0.00000000
Si       1.82024460       0.87400737       1.25934228       0.00000000
Si      -1.52591688       1.27399203      -1.43289354       0.00000000
Si       2.50007517       2.55801870      -0.18100543       0.00000000
Si       3.33365076      -0.98841204       1.16229990       0.00000000
Si       2.50927902      -2.84184656      -0.05607890       0.00000000
Si       2.54282013      -0.09115884      -2.82264946       0.00000000
Si      -2.84416884       0.74402946       2.44521258       0.00000000
Si      -0.18006966       2.62699056      -2.81957806       0.00000000
