10
Lattice="16.28999089631971 0.0 0.0 0.0 16.28999089631971 0.0 0.0 0.0 34.51007289658418" Properties=species:S:1:pos:R:3:initial_magmoms:R:1 pbc="T T T"
Si       0.88935255      -0.20732283      -2.15679867       0.00000000
Si       1.85065803       0.81510273       1.24992172       0.00000000
Si      -1.01172303      -1.87923069       1.06305302       0.00000000
Si      -1.73009574       1.79633088      -0.08480993       0.00000000
Si       1.71111789       2.16060786      -1.88751642       0.00000000
Si      -2.20517730      -0.53069562       2.58488597       0.00000000
Si       0.52716069       2.20211478       2.60248611       0.00000000
Si      -3.56557963       0.74761326       1.09441579       0.00000000
Si      -0.86866425       3.51823275       1.23721510       0.00000000
Si       3.32594559       1.93578957      -0.21277615       0.00000000
