10
Lattice="16.28999089631971 0.0 0.0 0.0 16.28999089631971 0.0 0.0 0.0 34.51007289658418" Properties=species:S:1:pos:R:3:initial_magmoms:R:1 pbc="T T T"
Si      -0.97514058       1.60265907       1.48393396       0.00000000
Si      -1.19343865      -1.92658409      -0.84618746       0.00000000
Si       2.35140286       0.39221433       0.51137055       0.00000000
Si       0.88096972      -0.94141539      -2.25354353       0.00000000
Si       0.42771676      -2.83559120       1.82002775       0.00000000
Si       2.38048051      -1.45742720       1.93639578       0.00000000
Si      -0.57289649       3.52730628       0.10108006       0.00000000
Si       0.04441794      -3.82569740      -0.27849644       0.00000000
Si      -1.56182071      -1.98410734       2.96755734       0.00000000
Si      -3.29056438       1.38950442       1.63294854       0.00000000
