10
Lattice="16.28999089631971 0.0 0.0 0.0 16.28999089631971 0.0 0.0 0.0 34.51007289658418" Properties=species:S:1:pos:R:3:initial_magmoms:R:1 pbc="T T T"
Si      -1.97996805      -0.21885615       1.17009919       0.00000000
Si       1.67151690      -0.47672685       1.58328852       0.00000000
Si       0.31806225       2.14485543      -0.92497400       0.00000000
Si       0.45317151      -1.34438112      -1.93549852       0.00000000
Si       2.67186951      -0.45383940      -1.80525743       0.00000000
Si       2.62744668       1.82692350      -1.11912778       0.00000000
Si       3.11008680      -1.70816940       0.09366039       0.00000000
Si      -2.95023303      -2.11105368       0.24322713       0.00000000
Si      -3.37523913       1.33040430       0.25917079       0.00000000
Si       0.84546729      -2.16298620       2.94667873       0.00000000
