10
Lattice="16.28999089631971 0.0 0.0 0.0 16.28999089631971 0.0 0.0 0.0 34.51007289658418" Properties=species:S:1:pos:R:3:initial_magmoms:R:1 pbc="T T T"
Si       1.28620953       0.72475839      -1.76912537       0.00000000
Si       1.61482770      -0.22481829       1.67474026       0.00000000
Si      -1.55799189       1.86137685       0.13376112       0.00000000
Si      -0.82176534      -2.36793069      -0.26928225       0.00000000
Si      -1.71111789      -2.16060786       1.88751642       0.00000000
Si       0.13954014      -1.34550513       3.13743814       0.00000000
Si      -0.32935122       2.07936963      -2.74538136       0.00000000
Si      -2.34593919       0.82735281      -2.51271432       0.00000000
Si      -3.61238895       0.84391974      -0.22642071       0.00000000
Si      -3.44121363      -0.36427698       1.80270649       0.00000000
