10
Lattice="16.28999089631971 0.0 0.0 0.0 16.28999089631971 0.0 0.0 0.0 34.51007289658418" Properties=species:S:1:pos:R:3:initial_magmoms:R:1 pbc="T T T"
Si      -1.35731538      -1.35698958      -1.35655721       0.00000000
Si       1.35702216      -1.35755973       1.35731644       0.00000000
Si       1.35865116       1.35638685      -1.35707486       0.00000000
Si      -1.35765747       1.35775521       1.35766154       0.00000000
Si       2.71375110       0.00239463      -2.71190657       0.00000000
Si       0.00094482       2.71037907      -2.71735917       0.00000000
Si       0.00073305      -2.71362078       2.71470189       0.00000000
Si      -0.00006516       2.71349046       2.71515052       0.00000000
Si      -2.71493701       2.71446786       0.00034510       0.00000000
Si      -2.71413880       0.00130320       2.71535758       0.00000000
