10
Lattice="16.28999089631971 0.0 0.0 0.0 16.28999089631971 0.0 0.0 0.0 34.51007289658418" Properties=species:S:1:pos:R:3:initial_magmoms:R:1 pbc="T T T"
Si      -1.35628911      -1.35606105       1.35738546       0.00000000
Si      -1.35702216       1.35755973      -1.35731644       0.00000000
Si       1.35790182      -1.35728280      -1.35724742       0.00000000
Si       1.35669636       1.35819504       1.35873135       0.00000000
Si      -2.71433754       0.00057015      -2.71387365       0.00000000
Si       0.00162900       2.71394658      -2.71439130       0.00000000
Si      -0.00003258      -2.71409319      -2.71463287       0.00000000
Si       2.71423980       0.00128691      -2.71452934       0.00000000
Si      -2.71454931      -2.71441899       0.00034510       0.00000000
Si      -2.71467963       2.71531494       0.00034510       0.00000000
