10
Lattice="16.28999089631971 0.0 0.0 0.0 16.28999089631971 0.0 0.0 0.0 34.51007289658418" Properties=species:S:1:pos:R:3:initial_magmoms:R:1 pbc="T T T"
Si      -2.25302103       0.57611214      -0.01690995       0.00000000
Si       0.58924188       0.09150093       2.27000484       0.00000000
Si       0.85353084       1.73521080      -1.37912681       0.00000000
Si       0.09625761      -2.31990777      -0.73910264       0.00000000
Si      -2.48437161       0.66707550      -2.33705795       0.00000000
Si       2.89862631      -0.22643100       2.07585106       0.00000000
Si      -3.14724429      -1.23861015       1.17503413       0.00000000
Si      -0.47806263       1.48810779      -3.33823024       0.00000000
Si       0.72435114      -3.39773562       1.25948032       0.00000000
Si       0.27117963      -2.05335450       3.19497884       0.00000000
