10
Lattice="16.28999089631971 0.0 0.0 0.0 16.28999089631971 0.0 0.0 0.0 34.51007289658418" Properties=species:S:1:pos:R:3:initial_magmoms:R:1 pbc="T T T"
Si       0.17303238       1.98004950       1.22272708       0.00000000
Si       0.46577997      -1.51630578       1.73282075       0.00000000
Si      -2.07984204      -0.82648944      -0.75680632       0.00000000
Si       1.30952052       0.38432997      -1.93187496       0.00000000
Si      -1.36611198      -2.88072360      -1.68913097       0.00000000
Si      -1.67396040       3.17927043       0.35859437       0.00000000
Si      -0.04748535       2.07661662      -2.97283738       0.00000000
Si      -1.74053763      -2.01282498       2.51085078       0.00000000
Si       3.21048207       1.50804675      -1.05873512       0.00000000
Si       1.47615093      -3.36533481       0.59778382       0.00000000
