10
Lattice="16.28999089631971 0.0 0.0 0.0 16.28999089631971 0.0 0.0 0.0 34.51007289658418" Properties=species:S:1:pos:R:3:initial_magmoms:R:1 pbc="T T T"
Si      -0.50788962       1.05573209       2.01704587       0.00000000
Si      -0.02907765       1.84964153      -1.42502524       0.00000000
Si      -1.95276375      -1.37816399      -0.11636803       0.00000000
Si       1.93367187      -1.34758766       0.48286521       0.00000000
Si      -2.38048051       1.45742720      -1.93639578       0.00000000
Si      -0.92256786      -3.12031433       1.05663000       0.00000000
Si       0.52892001      -0.29369730       3.54632609       0.00000000
Si       1.19716839      -3.51521651      -0.02395000       0.00000000
Si       2.59017516      -0.69936717       2.62670116       0.00000000
Si      -2.77622977       0.79378889       2.57431484       0.00000000
