10
Lattice="16.28999089631971 0.0 0.0 0.0 16.28999089631971 0.0 0.0 0.0 34.51007289658418" Properties=species:S:1:pos:R:3:initial_magmoms:R:1 pbc="T T T"
Si       2.30938443      -0.31793193      -0.19415378       0.00000000
Si      -0.58924188      -0.09150093      -2.27000484       0.00000000
Si      -0.31806225      -2.14485543       0.92497400       0.00000000
Si      -1.01037096       1.84902903       1.13503693       0.00000000
Si       2.35380726      -2.59869483      -0.88028343       0.00000000
Si       0.13510926      -3.48923655      -1.01052452       0.00000000
Si       3.05949006       0.19091880       1.97846358       0.00000000
Si      -2.84226291       0.48461121      -2.28691479       0.00000000
Si      -1.47615093       3.36533481      -0.59778382       0.00000000
Si       1.35345465      -2.62158228       2.50826252       0.00000000
