10
Lattice="16.28999089631971 0.0 0.0 0.0 16.28999089631971 0.0 0.0 0.0 34.51007289658418" Properties=species:S:1:pos:R:3:initial_magmoms:R:1 pbc="T T T"
Si       0.82437174       1.85343452       1.21837880       0.00000000
Si       1.40395365      -1.31070969      -1.38854807       0.00000000
Si      -1.33709949       1.38363092      -1.39859051       0.00000000
Si      -0.62232687      -1.85816772       1.37118949       0.00000000
Si       0.51256485       1.22518297       3.45908458       0.00000000
Si      -2.60390763      -2.65707819       0.10874130       0.00000000
Si      -2.50927902       2.84184656       0.05607890       0.00000000
Si       2.69873172       2.70983240       0.04455253       0.00000000
Si       0.03016908      -2.67776649      -2.76066933       0.00000000
Si      -2.68736130       0.03937293      -2.76584585       0.00000000
