10
Lattice="16.28999089631971 0.0 0.0 0.0 16.28999089631971 0.0 0.0 0.0 34.51007289658418" Properties=species:S:1:pos:R:3:initial_magmoms:R:1 pbc="T T T"
Si      -1.60764381       1.35865116      -1.05918375       0.00000000
Si      -0.75434103      -2.26663037      -0.32477448       0.00000000
Si       0.78266934       1.27446444       1.91765680       0.00000000
Si       2.06848791      -0.20382048      -1.28087658       0.00000000
Si      -0.56900970       0.61243884      -3.02042680       0.00000000
Si      -0.71193816      -2.55247100       2.01890941       0.00000000
Si       1.63204623       3.05588997       0.49228646       0.00000000
Si       2.31915843       2.11181931      -1.60451223       0.00000000
Si       1.21197600      -3.55893236      -0.74531446       0.00000000
Si       1.60018299      -2.37807026       2.71083676       0.00000000
