10
Lattice="16.28999089631971 0.0 0.0 0.0 16.28999089631971 0.0 0.0 0.0 34.51007289658418" Properties=species:S:1:pos:R:3:initial_magmoms:R:1 pbc="T T T"
Si      -1.18671021       0.16827570      -2.00731402       0.00000000
Si       0.87931791       2.16026577       0.33833694       0.00000000
Si      -1.65915279      -0.13204674       1.72519402       0.00000000
Si       1.55136186      -1.78496372       0.50253596       0.00000000
Si      -2.04333615      -2.01889952      -1.60026748       0.00000000
Si       3.02676345       1.47862701       0.74983528       0.00000000
Si       2.76698682      -0.47250774       2.04068528       0.00000000
Si      -1.77759738       2.52405405      -1.69082197       0.00000000
Si       0.10870317      -3.42121670       1.41905499       0.00000000
Si       0.44110062       3.41459577      -1.56058088       0.00000000
