10
Lattice="16.28999089631971 0.0 0.0 0.0 16.28999089631971 0.0 0.0 0.0 34.51007289658418" Properties=species:S:1:pos:R:3:initial_magmoms:R:1 pbc="T T T"
Si      -2.14744554       0.68163876      -0.41149834       0.00000000
Si       0.53691840       1.84669956       1.29447356       0.00000000
Si      -0.25977663      -1.95113475       1.29085000       0.00000000
Si       1.42218216      -0.78858261      -1.75808214       0.00000000
Si      -3.02676345      -1.47862701      -0.74983528       0.00000000
Si       1.97555346      -2.31000345       1.81447163       0.00000000
Si      -1.47540159      -3.26359073      -0.24729932       0.00000000
Si       2.83587723      -2.22558867      -0.37132859       0.00000000
Si       2.70640431       1.48550139       2.00306928       0.00000000
Si      -1.31812164      -1.62940725       3.35714177       0.00000000
