10
Lattice="16.28999089631971 0.0 0.0 0.0 16.28999089631971 0.0 0.0 0.0 34.51007289658418" Properties=species:S:1:pos:R:3:initial_magmoms:R:1 pbc="T T T"
Si       1.57591089       1.04969502      -1.48203591       0.00000000
Si      -1.88439462       1.54289106      -0.25016366       0.00000000
Si      -1.12306518      -1.73306052      -1.34465123       0.00000000
Si       1.57123566      -0.35157078       2.18303941       0.00000000
Si      -2.71231758       0.52631361       1.79666442       0.00000000
Si       0.26306721       2.40142293      -2.80315126       0.00000000
Si      -2.42401716      -0.34016778      -2.80518735       0.00000000
Si       2.67765246       2.72150514      -0.24650559       0.00000000
Si       3.33138645       1.25490015       1.45705060       0.00000000
Si      -2.99742516      -2.58945840      -0.17082496       0.00000000
