10
Lattice="16.28999089631971 0.0 0.0 0.0 16.28999089631971 0.0 0.0 0.0 34.51007289658418" Properties=species:S:1:pos:R:3:initial_magmoms:R:1 pbc="T T T"
Si      -0.51261372       1.18594458       1.96804154       0.00000000
Si       0.61608780       1.14414444      -2.06649883       0.00000000
Si       2.20480263      -1.08176514       0.56624159       0.00000000
Si      -2.37571780      -0.65508280      -0.69807014       0.00000000
Si      -1.44355301      -0.70501654       3.23551582       0.00000000
Si       1.90685853      -2.98899413      -0.96990614       0.00000000
Si      -3.13084745       1.48128228      -1.38309547       0.00000000
Si       0.60626493      -0.57124957      -3.72098167       0.00000000
Si      -1.37626391       2.29276863      -2.73478677       0.00000000
Si      -3.28371281      -1.55674733       1.59754119       0.00000000
