10
Lattice="16.28999089631971 0.0 0.0 0.0 16.28999089631971 0.0 0.0 0.0 34.51007289658418" Properties=species:S:1:pos:R:3:initial_magmoms:R:1 pbc="T T T"
Si       0.21018987       1.30815216       1.96921488       0.00000000
Si       2.25940671      -0.63915444       0.45656852       0.00000000
Si      -0.23296329       1.60691076      -1.76412140       0.00000000
Si      -1.55095461      -1.80473652       0.36773954       0.00000000
Si       2.18041650       0.26412606       2.60951513       0.00000000
Si       1.08519093       3.23359758       0.98743727       0.00000000
Si       2.07088254      -2.96096814       0.19118591       0.00000000
Si       1.69878636       3.00454389      -1.30713876       0.00000000
Si      -1.91948328      -1.68888204       2.70669555       0.00000000
Si      -2.50962111       2.31197454      -1.62998067       0.00000000
