10
Lattice="16.28999089631971 0.0 0.0 0.0 16.28999089631971 0.0 0.0 0.0 34.51007289658418" Properties=species:S:1:pos:R:3:initial_magmoms:R:1 pbc="T T T"
Si       2.21226345      -0.72014832      -0.17089398       0.00000000
Si      -0.75010563      -0.50885073      -2.17261736       0.00000000
Si      -0.49208832       2.30513274      -0.08627523       0.00000000
Si      -0.68776380      -1.17066456       1.94481624       0.00000000
Si      -1.70603541      -2.81250108       0.52979894       0.00000000
Si       0.72679464       1.01994948      -3.25012597       0.00000000
Si       2.72236851      -0.08343738      -2.41018484       0.00000000
Si      -3.05949006      -0.19091880      -1.97846358       0.00000000
Si       3.36743622       0.51077295       1.51447540       0.00000000
Si       1.02014496       3.31405389       1.37678013       0.00000000
