10
Lattice="16.28999089631971 0.0 0.0 0.0 16.28999089631971 0.0 0.0 0.0 34.51007289658418" Properties=species:S:1:pos:R:3:initial_magmoms:R:1 pbc="T T T"
Si       1.34138376       1.34926812      -1.37602091       0.00000000
Si      -1.40395365       1.31070969       1.38854807       0.00000000
Si      -1.37378457      -1.36705680      -1.37212127       0.00000000
Si       1.29441969      -1.45701018       1.45442784       0.00000000
Si      -2.02628052      -0.54745803       2.75973756       0.00000000
Si      -0.52823583      -2.43797769       2.57852507       0.00000000
Si       2.69676063       2.68930700       0.01066362       0.00000000
Si       2.69809641      -0.00830790      -2.73433813       0.00000000
Si      -2.74105314       2.69434061      -0.01004244       0.00000000
Si      -0.01692531       2.70526468      -2.73492481       0.00000000
