10
Lattice="16.28999089631971 0.0 0.0 0.0 16.28999089631971 0.0 0.0 0.0 34.51007289658418" Properties=species:S:1:pos:R:3:initial_magmoms:R:1 pbc="T T T"
Si      -1.36166265      -1.35496962       1.38892423       0.00000000
Si       1.35371324       1.36443411       1.39130543       0.00000000
Si      -1.26871191       1.41245703      -1.50731455       0.00000000
Si       1.34133610      -1.43387838      -1.46574715       0.00000000
Si      -2.70219933       2.69750997       0.02643818       0.00000000
Si       2.70582722       2.70453096       0.03592155       0.00000000
Si       2.70173843      -2.71218726       0.02472303       0.00000000
Si      -2.72054187      -2.70042588       0.00088691       0.00000000
Si      -0.00358324      -2.71125873       2.75069247       0.00000000
Si       2.71147985       0.00539199       2.75152071       0.00000000
