10
Lattice="16.28999089631971 0.0 0.0 0.0 16.28999089631971 0.0 0.0 0.0 34.51007289658418" Properties=species:S:1:pos:R:3:initial_magmoms:R:1 pbc="T T T"
Si      -0.92053161      -1.75044195      -1.20812931       0.00000000
Si       0.70680681      -1.14277608       1.93004593       0.00000000
Si       1.82265552       0.98096751      -1.12409723       0.00000000
Si      -1.49804469       1.89051966       0.18121249       0.00000000
Si      -2.21475582      -0.29545173      -2.58294236       0.00000000
Si       0.52823583       2.43797769      -2.57852507       0.00000000
Si      -2.21529339      -2.98041840       0.41456974       0.00000000
Si      -0.40149963       2.60556921       2.74013583       0.00000000
Si      -3.47962545       1.09160919      -1.08123570       0.00000000
Si       2.97207792      -0.28180071       2.40462871       0.00000000
