10
Lattice="16.28999089631971 0.0 0.0 0.0 16.28999089631971 0.0 0.0 0.0 34.51007289658418" Properties=species:S:1:pos:R:3:initial_magmoms:R:1 pbc="T T T"
Si       1.56325356       0.82449880      -1.46295445       0.00000000
Si       1.36638891      -1.36741078       1.27163823       0.00000000
Si      -1.35252612       1.40386894       1.25311666       0.00000000
Si      -1.83976002      -0.68329708      -1.40178165       0.00000000
Si      -0.26523378      -0.28595955      -3.18133497       0.00000000
Si      -2.54604555      -2.70944469      -0.25344557       0.00000000
Si      -2.70262503       0.01775121       2.61720398       0.00000000
Si       0.01078398      -2.69836749       2.62607307       0.00000000
Si       0.46851669       2.71736422      -2.56557140       0.00000000
Si       2.72991078       0.02099129       2.62151774       0.00000000
