10
Lattice="16.28999089631971 0.0 0.0 0.0 16.28999089631971 0.0 0.0 0.0 34.51007289658418" Properties=species:S:1:pos:R:3:initial_magmoms:R:1 pbc="T T T"
Si       1.35887922       1.34545626       1.38803732       0.00000000
Si      -1.35736425      -1.36844145       1.39255814       0.00000000
Si       1.35415512      -1.42550532      -1.43032254       0.00000000
Si      -1.30564350       1.53494154      -1.47585170       0.00000000
Si      -2.72002275      -2.69503389       0.02360490       0.00000000
Si       2.72054187       2.70042588      -0.00088691       0.00000000
Si      -2.71645524       2.71492398       0.02007107       0.00000000
Si       2.70541062      -2.72709261       0.02757356       0.00000000
Si       0.00014661       2.70524772       2.74997811       0.00000000
Si      -2.71202436      -0.01027899       2.74959850       0.00000000
