10
Lattice="16.28999089631971 0.0 0.0 0.0 16.28999089631971 0.0 0.0 0.0 34.51007289658418" Properties=species:S:1:pos:R:3:initial_magmoms:R:1 pbc="T T T"
Si       1.35807940      -1.35628911       1.36176824       0.00000000
Si      -1.35873261       1.35979146       1.36194079       0.00000000
Si      -1.35887922      -1.34545626      -1.38803732       0.00000000
Si       1.36166265       1.35496962      -1.38892423       0.00000000
Si      -2.71624347      -2.71389771       0.00452082       0.00000000
Si      -2.71414206       2.71702539       0.00590123       0.00000000
Si       0.00065160      -2.71308321       2.71946428       0.00000000
Si       2.71845469      -2.71415835       0.00434827       0.00000000
Si      -2.71508688       0.00245979       2.71929173       0.00000000
Si       2.71537588       2.71940373       0.00238120       0.00000000
