10
Lattice="16.28999089631971 0.0 0.0 0.0 16.28999089631971 0.0 0.0 0.0 34.51007289658418" Properties=species:S:1:pos:R:3:initial_magmoms:R:1 pbc="T T T"
Si      -1.35897696      -1.35702216       1.35648819       0.00000000
Si      -1.35796698       1.35755973      -1.35766154       0.00000000
Si       1.35777150      -1.35798327      -1.35748899       0.00000000
Si       1.35801585       1.35884664       1.35731644       0.00000000
Si      -2.71472850       2.71425609       0.00024157       0.00000000
Si      -2.71378368      -0.00063531      -2.71539209       0.00000000
Si       2.71479940      -2.71505430       0.00024157       0.00000000
Si      -0.00161271       2.71489140      -2.71501248       0.00000000
Si       2.71486477       2.71510317       0.00020706       0.00000000
Si      -0.00026064      -2.71531494      -2.71483993       0.00000000
