10
Lattice="16.28999089631971 0.0 0.0 0.0 16.28999089631971 0.0 0.0 0.0 34.51007289658418" Properties=species:S:1:pos:R:3:initial_magmoms:R:1 pbc="T T T"
Si      -1.37401263      -1.87150923       0.37823061       0.00000000
Si       1.51415550      -0.37212876       1.79414518       0.00000000
Si      -0.92401767       2.19025566      -0.18704470       0.00000000
Si       0.83443896      -0.41475969      -2.33350341       0.00000000
Si      -2.41264674      -1.12529691       2.33947366       0.00000000
Si       1.26348498      -2.68776855       2.11778083       0.00000000
Si      -3.27595158      -1.47061233      -0.98743727       0.00000000
Si       1.42190523      -2.72078838      -2.14704539       0.00000000
Si      -1.69368759       2.86462908       1.91831249       0.00000000
Si       0.77903667       3.83313474      -0.45505008       0.00000000
