10
Lattice="16.28999089631971 0.0 0.0 0.0 16.28999089631971 0.0 0.0 0.0 34.51007289658418" Properties=species:S:1:pos:R:3:initial_magmoms:R:1 pbc="T T T"
Si      -1.35479043      -1.33683885      -1.39106731       0.00000000
Si       1.35565380       1.37986074      -1.39193006       0.00000000
Si      -1.40691843       1.28757789       1.43596494       0.00000000
Si       1.52577027      -1.36796904       1.63236187       0.00000000
Si       0.47214936       1.76754645       3.03785439       0.00000000
Si       2.71888245      -2.67273288      -0.01677190       0.00000000
Si      -2.70220149      -2.70689301      -0.00717810       0.00000000
Si      -2.70133812       2.74458807      -0.01846290       0.00000000
Si      -0.00283446      -2.69490357      -2.75342221       0.00000000
Si       2.69996976       2.75061537      -0.02432961       0.00000000
