10
Lattice="16.28999089631971 0.0 0.0 0.0 16.28999089631971 0.0 0.0 0.0 34.51007289658418" Properties=species:S:1:pos:R:3:initial_magmoms:R:1 pbc="T T T"
Si      -0.26697681      -1.72608840       1.44831955       0.00000000
Si      -1.97022663       1.04402610      -0.64030025       0.00000000
Si       1.71067806       1.51835832       0.41567406       0.00000000
Si       0.07899021      -0.90328050      -2.15294661       0.00000000
Si      -2.18041650      -0.26412606      -2.60951513       0.00000000
Si       1.90070091      -2.54606184       1.52689903       0.00000000
Si      -1.09522557       2.96947152      -1.62207786       0.00000000
Si       0.59360760       3.52489536      -0.07630181       0.00000000
Si      -0.60567849      -0.75738726       3.48617500       0.00000000
Si       3.35707645       0.81441855      -1.10087194       0.00000000
