10
Lattice="16.28999089631971 0.0 0.0 0.0 16.28999089631971 0.0 0.0 0.0 34.51007289658418" Properties=species:S:1:pos:R:3:initial_magmoms:R:1 pbc="T T T"
Si       1.55010299       0.99504207      -1.58052771       0.00000000
Si      -1.01146239      -1.82363292      -1.27218004       0.00000000
Si      -2.06508330       1.31188257       0.13331249       0.00000000
Si       1.56263049      -0.44649261       1.95651517       0.00000000
Si      -2.79472869      -0.43085421       2.06014897       0.00000000
Si       0.16273710       2.29495149      -2.92887152       0.00000000
Si       2.84993128       2.43467082      -0.16837474       0.00000000
Si      -2.53723266      -0.45566388      -2.90454191       0.00000000
Si       3.69319454       0.69875955       1.17503413       0.00000000
Si      -1.31121468       3.48553872      -1.37129302       0.00000000
