10
Lattice="16.28999089631971 0.0 0.0 0.0 16.28999089631971 0.0 0.0 0.0 34.51007289658418" Properties=species:S:1:pos:R:3:initial_magmoms:R:1 pbc="T T T"
Si       0.43988524      -1.69556094       1.55799262       0.00000000
Si       1.64929312       1.73602530       0.12220024       0.00000000
Si      -2.17927620       1.05142176       0.59826696       0.00000000
Si       0.44671662      -1.22885244      -2.17527464       0.00000000
Si       0.41143653       3.63513861      -0.44549078       0.00000000
Si      -1.61865585      -2.59227657       2.36197424       0.00000000
Si       1.65943039      -0.87457752       3.41404891       0.00000000
Si       2.57728067      -0.08360028      -2.95675568       0.00000000
Si      -1.92280644       3.43901841       0.27884154       0.00000000
Si       1.46568039      -3.62100636       0.72999198       0.00000000
