10
Lattice="16.28999089631971 0.0 0.0 0.0 16.28999089631971 0.0 0.0 0.0 34.51007289658418" Properties=species:S:1:pos:R:3:initial_magmoms:R:1 pbc="T T T"
Si      -1.33839780       1.26728055      -1.46246869       0.00000000
Si      -1.79679352      -0.95187357       1.36960203       0.00000000
Si       1.37658645      -1.44866970      -1.43499865       0.00000000
Si       1.70144163       1.02558582       1.48997323       0.00000000
Si       0.05833449      -1.97863227       2.44310747       0.00000000
Si      -2.61699730       2.69539227      -0.09145174       0.00000000
Si       0.01202202       2.61703737      -2.82254593       0.00000000
Si       1.79457156      -0.64883070       3.35248291       0.00000000
Si       2.82028770       2.64850965       0.02360490       0.00000000
Si      -2.70311077      -0.09798435      -2.81892237       0.00000000
