10
Lattice="16.28999089631971 0.0 0.0 0.0 16.28999089631971 0.0 0.0 0.0 34.51007289658418" Properties=species:S:1:pos:R:3:initial_magmoms:R:1 pbc="T T T"
Si      -0.87500106      -1.92544542       0.98177761       0.00000000
Si       1.68883317       0.55542384       1.54577605       0.00000000
Si       0.61359543      -0.22905369      -2.29457603       0.00000000
Si      -1.96631703       1.29230199       0.42053998       0.00000000
Si      -1.31815422      -1.62668682      -2.75155867       0.00000000
Si       0.87006519       2.15854296      -2.61400144       0.00000000
Si       0.85651191       3.35511188      -0.53556212       0.00000000
Si      -1.92391416       1.00646136       2.76422387       0.00000000
Si      -1.08519093      -3.23359758      -0.98743727       0.00000000
Si       1.09522557      -2.96947152       1.62207786       0.00000000
