10
Lattice="16.28999089631971 0.0 0.0 0.0 16.28999089631971 0.0 0.0 0.0 34.51007289658418" Properties=species:S:1:pos:R:3:initial_magmoms:R:1 pbc="T T T"
Si       0.48888638      -2.03823738       1.07012345       0.00000000
Si       1.37734135       0.51620634      -1.90996105       0.00000000
Si      -2.39464629      -0.18015111      -0.33326396       0.00000000
Si       0.45360175       1.46047410       1.89115305       0.00000000
Si      -0.81401130      -1.55471760       3.01000475       0.00000000
Si      -2.78376552       1.87511651      -1.44669757       0.00000000
Si      -2.40025005      -1.62741987      -2.22983510       0.00000000
Si      -0.30152790       3.59683919       1.20612772       0.00000000
Si       3.43558448       1.54430733      -1.13175847       0.00000000
Si       2.26109177      -1.45580472      -2.93232253       0.00000000
