10
Lattice="16.28999089631971 0.0 0.0 0.0 16.28999089631971 0.0 0.0 0.0 34.51007289658418" Properties=species:S:1:pos:R:3:initial_magmoms:R:1 pbc="T T T"
Si       2.27934893       0.16653267      -0.55778662       0.00000000
Si      -0.45962235      -2.27636460      -0.38264790       0.00000000
Si      -1.42719296       1.73662803      -0.72108838       0.00000000
Si      -1.23097828       1.21204116      -3.01003926       0.00000000
Si       2.66527532       2.39972877       0.12551321       0.00000000
Si       1.39882556       2.41629570       2.41180681       0.00000000
Si       2.38049354      -0.32861817      -2.83331308       0.00000000
Si       1.53272936      -3.42498879       0.28564003       0.00000000
Si       3.33674912      -1.74669525       0.32494703       0.00000000
Si      -0.72238982      -2.54857050      -2.74379390       0.00000000
