10
Lattice="16.28999089631971 0.0 0.0 0.0 16.28999089631971 0.0 0.0 0.0 34.51007289658418" Properties=species:S:1:pos:R:3:initial_magmoms:R:1 pbc="T T T"
Si       2.21620074       0.00860112      -0.73420221       0.00000000
Si      -0.59360338       1.44086679      -1.76029078       0.00000000
Si      -0.19621468       0.52458687       2.28895088       0.00000000
Si      -1.05897610      -2.09660445      -0.23069997       0.00000000
Si      -0.08501588      -0.11896587      -3.44890410       0.00000000
Si       2.69281356       2.17556208      -0.00528004       0.00000000
Si      -2.42215588      -0.09190818       2.47955012       0.00000000
Si       1.23097828      -1.21204116       3.01003926       0.00000000
Si      -1.22778937      -2.02188222      -2.60068055       0.00000000
Si       1.06133585       3.09593079      -1.36691024       0.00000000
