10
Lattice="16.28999089631971 0.0 0.0 0.0 16.28999089631971 0.0 0.0 0.0 34.51007289658418" Properties=species:S:1:pos:R:3:initial_magmoms:R:1 pbc="T T T"
Si       0.40922907      -2.45630394       0.39396721       0.00000000
Si      -0.44671662       1.22885244       2.17527464       0.00000000
Si       2.13056405       1.14525216      -0.78148104       0.00000000
Si      -1.56263049       0.44649261      -1.95651517       0.00000000
Si      -0.00683137      -0.46670850       3.73326726       0.00000000
Si       1.28730080       2.88116343      -2.12488991       0.00000000
Si      -0.01252750       1.44153468      -3.53704288       0.00000000
Si       1.01896377      -2.39215392       2.90526662       0.00000000
Si       1.20257651       2.96487774       2.29747488       0.00000000
Si       1.45335943      -3.41166357      -1.52658844       0.00000000
