10
Lattice="16.28999089631971 0.0 0.0 0.0 16.28999089631971 0.0 0.0 0.0 34.51007289658418" Properties=species:S:1:pos:R:3:initial_magmoms:R:1 pbc="T T T"
Si       1.24690176       1.47326760       1.31134899       0.00000000
Si      -1.30970134       1.38852702      -1.48579751       0.00000000
Si       1.39916439      -1.31113323      -1.48120767       0.00000000
Si      -1.18905271      -2.02113288       1.86416616       0.00000000
Si      -2.58635581      -2.59343316      -0.13348504       0.00000000
Si      -0.51184809       2.53578285       2.60927356       0.00000000
Si       2.62878246       0.15667722       2.61955757       0.00000000
Si      -2.65493964       2.83206537      -0.14628828       0.00000000
Si       2.85092919      -2.64031578      -0.01842839       0.00000000
Si       0.04266351      -2.67178806      -2.86457922       0.00000000
