10
Lattice="16.28999089631971 0.0 0.0 0.0 16.28999089631971 0.0 0.0 0.0 34.51007289658418" Properties=species:S:1:pos:R:3:initial_magmoms:R:1 pbc="T T T"
Si       2.25302103      -0.57611214       0.01690995       0.00000000
Si      -0.23135058       0.09096336      -2.32014801       0.00000000
Si      -0.89422326      -1.81472229       1.19194407       0.00000000
Si      -0.71373006       2.05423416       0.93232465       0.00000000
Si      -3.15225509      -1.42662933       0.75635769       0.00000000
Si      -0.57876741      -2.22931908      -2.72339843       0.00000000
Si       3.10655187       1.15909866      -1.36221687       0.00000000
Si       1.36611198       2.88072360       1.68913097       0.00000000
Si       2.84226291      -0.48461121       2.28691479       0.00000000
Si       2.34927864      -2.89601991      -0.72219270       0.00000000
