10
Lattice="16.28999089631971 0.0 0.0 0.0 16.28999089631971 0.0 0.0 0.0 34.51007289658418" Properties=species:S:1:pos:R:3:initial_magmoms:R:1 pbc="T T T"
Si       1.34016201       1.35470898      -1.38765081       0.00000000
Si      -1.37138994      -1.36130643      -1.38382019       0.00000000
Si      -1.37859012       1.43738498       1.34503084       0.00000000
Si       1.42361568      -1.34174214       1.48693634       0.00000000
Si       2.69042382       2.69896697      -0.02039546       0.00000000
Si       2.68848531      -2.72880306      -0.01477032       0.00000000
Si       2.69998605      -0.00358380      -2.74396645       0.00000000
Si      -0.16799877      -2.64805353       2.78976134       0.00000000
Si      -0.01441665       2.70968904      -2.74562293       0.00000000
Si      -2.72460187      -2.73279411      -0.00738516       0.00000000
