10
Lattice="16.28999089631971 0.0 0.0 0.0 16.28999089631971 0.0 0.0 0.0 34.51007289658418" Properties=species:S:1:pos:R:3:initial_magmoms:R:1 pbc="T T T"
Si       1.35690813      -1.35946566      -1.36052587       0.00000000
Si      -1.35863487       1.35811359      -1.36062940       0.00000000
Si      -1.35321193      -1.37148768       1.37643503       0.00000000
Si       1.37138994       1.36130643       1.38382019       0.00000000
Si      -2.69845023       0.07205067       2.71594425       0.00000000
Si       2.71155195       2.71601541      -0.00383062       0.00000000
Si       2.71515204      -2.71318095      -0.00348552       0.00000000
Si       2.71391400      -0.00063531      -2.71808388       0.00000000
Si      -0.00083079       2.71467176      -2.71780780       0.00000000
Si      -0.00068418      -2.71520091      -2.71801486       0.00000000
