10
Lattice="16.28999089631971 0.0 0.0 0.0 16.28999089631971 0.0 0.0 0.0 34.24959146834617" Properties=species:S:1:pos:R:3:initial_magmoms:R:1 pbc="T T T"
Si       2.03496309       0.82785780      -0.65146184       0.00000000
Si       0.65146968      -1.71307269       1.45451246       0.00000000
Si      -0.95915520       1.90990380       0.98056635       0.00000000
Si      -0.73977777      -0.66114594      -2.14587510       0.00000000
Si      -2.74937407      -1.55584161      -1.35525709       0.00000000
Si       2.49010569      -2.60674209       0.07312292       0.00000000
Si       1.48051665       2.35821926      -2.33390547       0.00000000
Si       3.15999936      -0.97653663      -1.59949107       0.00000000
Si      -0.33355404       1.29865509      -3.46304663       0.00000000
Si      -1.16168877      -3.26767626       1.49811222       0.00000000
