10
Lattice="16.28999089631971 0.0 0.0 0.0 16.28999089631971 0.0 0.0 0.0 34.24959146834617" Properties=species:S:1:pos:R:3:initial_magmoms:R:1 pbc="T T T"
Si       1.77476292       0.85380777       1.46002806       0.00000000
Si      -0.91928380      -1.79787843       1.41971969       0.00000000
Si      -1.78866155       1.78285905       0.24121799       0.00000000
Si      -1.17082420      -1.17276597      -2.09710366       0.00000000
Si       2.28900564       0.03686427      -2.43251009       0.00000000
Si       2.02075821      -2.42839917      -1.86095259       0.00000000
Si      -2.22929967      -0.47775312       2.88624350       0.00000000
Si       0.50217183       2.24924175       2.88427757       0.00000000
Si      -2.11829377      -3.04122897      -0.15323276       0.00000000
Si      -0.84823496       3.54307730       1.47713232       0.00000000
