10
Lattice="16.28999089631971 0.0 0.0 0.0 16.28999089631971 0.0 0.0 0.0 34.24959146834617" Properties=species:S:1:pos:R:3:initial_magmoms:R:1 pbc="T T T"
Si       1.35493704      -1.35163343      -1.35977804       0.00000000
Si      -1.35760860      -1.35017059       1.36940218       0.00000000
Si      -1.35977517       1.36169739      -1.35878480       0.00000000
Si       1.36897902       1.35966114       1.38043056       0.00000000
Si       2.70850572      -2.70873651       0.00445245       0.00000000
Si      -0.00255753      -2.71036165      -2.71619962       0.00000000
Si      -2.71503801      -2.71307953      -0.00246597       0.00000000
Si       2.71239903       0.00516393      -2.71609687       0.00000000
Si       2.71368594       2.71790505      -0.00277422       0.00000000
Si      -2.71696023       0.00421911      -2.71633662       0.00000000
