10
Lattice="16.28999089631971 0.0 0.0 0.0 16.28999089631971 0.0 0.0 0.0 34.24959146834617" Properties=species:S:1:pos:R:3:initial_magmoms:R:1 pbc="T T T"
Si      -0.50375196       2.02356986       1.02207688       0.00000000
Si       0.55444644      -1.53036146       1.68244362       0.00000000
Si       1.97527653      -0.06364666      -1.25531673       0.00000000
Si      -1.81407069      -1.05956417      -1.12914116       0.00000000
Si      -0.71076528      -1.11289763      -3.24186264       0.00000000
Si      -1.48051665      -2.35821926       2.33390547       0.00000000
Si       1.41874497      -1.99783559      -2.68842318       0.00000000
Si      -2.55026466       1.52252204       2.10415908       0.00000000
Si       3.72369852       0.12762401       0.43133960       0.00000000
Si      -2.22029442      -3.01936520       0.18803036       0.00000000
