10
Lattice="16.28999089631971 0.0 0.0 0.0 16.28999089631971 0.0 0.0 0.0 34.24959146834617" Properties=species:S:1:pos:R:3:initial_magmoms:R:1 pbc="T T T"
Si      -1.65092634       0.36890334      -1.64661853       0.00000000
Si       1.98671211      -0.14926527      -1.42365356       0.00000000
Si      -0.01713708       1.44590040       2.05675762       0.00000000
Si      -1.60259391      -1.83391191       1.17435065       0.00000000
Si      -1.53758052       2.66914908      -2.08604103       0.00000000
Si       2.04745752      -3.18697723       0.48315926       0.00000000
Si       2.20509585      -2.54404188      -1.87728966       0.00000000
Si      -3.75560086      -0.42891570      -0.82075767       0.00000000
Si       3.87931689       0.16060311      -0.01195311       0.00000000
Si      -0.04232142      -3.57623818       1.54770565       0.00000000
