10
Lattice="16.28999089631971 0.0 0.0 0.0 16.28999089631971 0.0 0.0 0.0 34.24959146834617" Properties=species:S:1:pos:R:3:initial_magmoms:R:1 pbc="T T T"
Si      -1.35648459       1.35772263       1.35823681       0.00000000
Si      -1.35808101      -1.35684297      -1.35779156       0.00000000
Si       1.35744570       1.35791811      -1.35772306       0.00000000
Si       1.35824391      -1.35661491       1.36142202       0.00000000
Si      -2.71423817      -2.71414206      -0.00123299       0.00000000
Si      -2.71435057      -0.00013032      -2.71506938       0.00000000
Si       0.00052128       2.71489140      -2.71476114       0.00000000
Si       2.71516833      -2.71533123      -0.00010275       0.00000000
Si       2.71531494       0.00022806      -2.71541188       0.00000000
Si       2.71520091       2.71578735       0.00020550       0.00000000
