10
Lattice="16.28999089631971 0.0 0.0 0.0 16.28999089631971 0.0 0.0 0.0 34.24959146834617" Properties=species:S:1:pos:R:3:initial_magmoms:R:1 pbc="T T T"
Si      -1.17636606       0.58857399      -1.95209081       0.00000000
Si       2.22523029      -0.65238192      -0.64296794       0.00000000
Si      -1.43070183      -1.64414970       1.05139455       0.00000000
Si       0.12030165       1.91640447       1.49506400       0.00000000
Si      -3.31551999       1.00605411      -1.11667430       0.00000000
Si      -3.22942734       1.14153804       1.29877948       0.00000000
Si       0.11471418      -3.45573779       1.36128502       0.00000000
Si       2.76024276       0.88544295      -2.35260575       0.00000000
Si      -2.41258158      -0.50751495       2.87953601       0.00000000
Si       0.86639994       1.00781343       3.60144930       0.00000000
