10
Lattice="16.28999089631971 0.0 0.0 0.0 16.28999089631971 0.0 0.0 0.0 34.24959146834617" Properties=species:S:1:pos:R:3:initial_magmoms:R:1 pbc="T T T"
Si      -1.32869385       1.40203143      -1.32930274       0.00000000
Si      -1.36117611      -1.34754138       1.36971728       0.00000000
Si       1.35226548       1.37285604       1.36708006       0.00000000
Si       1.54984689      -1.11819447      -1.46088632       0.00000000
Si      -2.71169856      -2.69379585      -0.01097700       0.00000000
Si       2.72692971      -2.68177383      -0.01218601       0.00000000
Si       0.24146667       2.47867011      -2.90834819       0.00000000
Si       2.19708117       0.83626344      -3.02394063       0.00000000
Si      -0.00568521      -2.69698869       2.72781709       0.00000000
Si       2.71091664       0.01554066       2.72733759       0.00000000
