10
Lattice="16.28999089631971 0.0 0.0 0.0 16.28999089631971 0.0 0.0 0.0 34.24959146834617" Properties=species:S:1:pos:R:3:initial_magmoms:R:1 pbc="T T T"
Si      -1.84901274       0.15677496      -1.40317230       0.00000000
Si       1.94781159      -1.18118790      -0.53754764       0.00000000
Si      -0.57894660      -1.32392088       1.86413781       0.00000000
Si       0.69952518       2.30319423       0.17439902       0.00000000
Si       3.03062418      -0.69858036       1.51307930       0.00000000
Si      -1.56594141       0.25749603       3.26611137       0.00000000
Si       3.10106214       0.19313424      -1.99514257       0.00000000
Si      -1.17911907       1.78698042      -3.07578628       0.00000000
Si       2.40767829       2.41326576      -1.56770743       0.00000000
Si       1.55344698      -2.13016185       2.68325149       0.00000000
