10
Lattice="16.28999089631971 0.0 0.0 0.0 16.28999089631971 0.0 0.0 0.0 34.24959146834617" Properties=species:S:1:pos:R:3:initial_magmoms:R:1 pbc="T T T"
Si       1.19513214       1.42817688      -1.46502709       0.00000000
Si      -0.95263920       0.87983919       1.98979963       0.00000000
Si      -2.05363143       0.00526167      -1.20377106       0.00000000
Si       0.76448970      -2.27893842       0.22279372       0.00000000
Si       2.18212695      -0.15324003      -2.86700065       0.00000000
Si      -0.68439177       3.34510263       1.41824213       0.00000000
Si      -3.52582389      -1.28124108      -0.00801441       0.00000000
Si       0.47563542      -0.12201210       3.81735885       0.00000000
Si       0.46159344      -1.73838735      -3.46499886       0.00000000
Si      -1.64312343       3.46462236      -0.82390863       0.00000000
