10
Lattice="16.28999089631971 0.0 0.0 0.0 16.28999089631971 0.0 0.0 0.0 34.24959146834617" Properties=species:S:1:pos:R:3:initial_magmoms:R:1 pbc="T T T"
Si       1.74972519       0.93967254      -1.26422163       0.00000000
Si      -0.80956413      -1.88045244      -1.22339609       0.00000000
Si       1.41903819      -0.51728895       1.92095791       0.00000000
Si      -1.62948870       1.90614896       0.06825947       0.00000000
Si       1.04073552      -2.55293622       0.90237449       0.00000000
Si      -2.21227974      -0.50083605      -2.82216791       0.00000000
Si       0.48604473       2.23449997      -2.81877720       0.00000000
Si      -3.33681102       1.01272977      -1.46047190       0.00000000
Si       2.67638184       2.79498023       0.10802327       0.00000000
Si      -1.91024685       0.49378248       3.39420491       0.00000000
