10
Lattice="16.28999089631971 0.0 0.0 0.0 16.28999089631971 0.0 0.0 0.0 34.24959146834617" Properties=species:S:1:pos:R:3:initial_magmoms:R:1 pbc="T T T"
Si       1.19977479      -0.12613347      -2.02668646       0.00000000
Si      -0.50424066      -1.92109599       1.28062719       0.00000000
Si      -2.12951025       0.88493796      -0.55343946       0.00000000
Si       0.55653156       1.93418893       1.43310646       0.00000000
Si       0.57246318       3.46086656      -0.33242672       0.00000000
Si       3.33288513       0.53926416      -1.13198388       0.00000000
Si      -1.41874497       1.99783559       2.68842318       0.00000000
Si       0.26073774      -1.33692030       3.42283759       0.00000000
Si       3.48690708      -0.60926229       1.05553875       0.00000000
Si      -3.23281566       0.93827142       1.55928202       0.00000000
