10
Lattice="16.28999089631971 0.0 0.0 0.0 16.28999089631971 0.0 0.0 0.0 34.24959146834617" Properties=species:S:1:pos:R:3:initial_magmoms:R:1 pbc="T T T"
Si      -1.32892191      -1.35013542      -1.38460901       0.00000000
Si      -1.35378045       1.35942005       1.36001779       0.00000000
Si       1.35992178      -1.35355602       1.36056578       0.00000000
Si       1.36800162       1.35427241      -1.39421602       0.00000000
Si      -2.64622905       0.12882132      -2.72853633       0.00000000
Si      -2.71313208      -2.71417857      -0.00503469       0.00000000
Si       0.00161271      -2.71292424       2.71688461       0.00000000
Si       2.71801908      -2.71279392      -0.00157548       0.00000000
Si       2.71834488       2.71269551      -0.00195223       0.00000000
Si      -2.71349046       0.00198412       2.71760385       0.00000000
