10
Lattice="16.28999089631971 0.0 0.0 0.0 16.28999089631971 0.0 0.0 0.0 34.24959146834617" Properties=species:S:1:pos:R:3:initial_magmoms:R:1 pbc="T T T"
Si       1.06189623      -1.89900905       0.93593911       0.00000000
Si       1.57030713       1.82474553      -0.06589625       0.00000000
Si      -1.38245085      -0.29278180      -2.02189151       0.00000000
Si      -1.89183915       0.93223272       1.63048696       0.00000000
Si      -0.05408280       3.26605215      -1.03974968       0.00000000
Si      -1.96898859       2.96965560       0.33598868       0.00000000
Si       3.26293587       1.28838099      -1.63144595       0.00000000
Si      -1.47209472      -2.62357196      -2.48350776       0.00000000
Si      -3.80084796      -0.37792474       0.83110105       0.00000000
Si      -3.64320963       0.26501061      -1.52934786       0.00000000
