10
Lattice="16.28999089631971 0.0 0.0 0.0 16.28999089631971 0.0 0.0 0.0 34.24959146834617" Properties=species:S:1:pos:R:3:initial_magmoms:R:1 pbc="T T T"
Si       1.12329324      -1.22668002      -1.62178756       0.00000000
Si      -0.35615479       2.28595615      -0.23197261       0.00000000
Si      -2.29764653      -0.49983096      -0.67190886       0.00000000
Si       1.79685216       0.88095994       1.76313570       0.00000000
Si      -1.05168566      -1.47966372      -2.51323643       0.00000000
Si       1.74851973       3.08377519      -1.05783347       0.00000000
Si      -1.97111348       2.63897674      -1.84807474       0.00000000
Si       2.13087861      -3.16694934      -0.78078837       0.00000000
Si      -1.60504460       3.21644095       1.66802454       0.00000000
Si       3.35712465      -0.86136633       2.13649071       0.00000000
