10
Lattice="16.28999089631971 0.0 0.0 0.0 16.28999089631971 0.0 0.0 0.0 34.24959146834617" Properties=species:S:1:pos:R:3:initial_magmoms:R:1 pbc="T T T"
Si       0.91627992      -2.12649660       0.02058402       0.00000000
Si       0.97111206       1.02998412       1.86715177       0.00000000
Si      -2.36532429      -0.33923925       0.23210961       0.00000000
Si       1.23106788       1.11335634      -1.86362406       0.00000000
Si      -0.14965623       2.99949399       1.30590340       0.00000000
Si      -0.66556053      -3.29230348      -1.27713373       0.00000000
Si       3.24962694       0.89682966       1.31265058       0.00000000
Si       0.43609959      -0.50784075       3.57678958       0.00000000
Si       0.31081320       3.52567728      -0.97186695       0.00000000
Si       0.86946246      -2.64399732       2.43435957       0.00000000
