10
Lattice="16.28999089631971 0.0 0.0 0.0 16.28999089631971 0.0 0.0 0.0 34.24959146834617" Properties=species:S:1:pos:R:3:initial_magmoms:R:1 pbc="T T T"
Si       1.34571690       1.34236116       1.37327239       0.00000000
Si       1.35462753      -1.35562122      -1.35532559       0.00000000
Si      -1.35843939       1.35707103      -1.35498309       0.00000000
Si      -1.34402274      -1.36071999       1.36923093       0.00000000
Si      -2.61575046       0.03191211       2.75911438       0.00000000
Si      -0.00120546      -2.71384884      -2.71284316       0.00000000
Si       2.71399545       0.00110772      -2.71294591       0.00000000
Si      -2.71653669       0.00148239      -2.71280891       0.00000000
Si      -0.00135207       2.71637379      -2.71304865       0.00000000
Si      -2.71705797      -2.71275741       0.00619918       0.00000000
