10
Lattice="16.28999089631971 0.0 0.0 0.0 16.28999089631971 0.0 0.0 0.0 34.24959146834617" Properties=species:S:1:pos:R:3:initial_magmoms:R:1 pbc="T T T"
Si       1.27172772      -1.39263210      -1.38988345       0.00000000
Si      -1.25217972      -1.30295565       1.52698464       0.00000000
Si       1.20555774       1.34281728       1.53746502       0.00000000
Si      -1.45165077       1.32937803      -1.37570411       0.00000000
Si      -0.90103248       1.97205111       2.33500145       0.00000000
Si       2.61832428       2.67625152       0.02222800       0.00000000
Si       2.61575046      -0.03191211      -2.75911438       0.00000000
Si      -2.75133213       2.64453489       0.20923087       0.00000000
Si      -0.10230120       2.68701921      -2.75274395       0.00000000
Si       2.67263514      -2.78866881      -0.00065074       0.00000000
