10
Lattice="16.28999089631971 0.0 0.0 0.0 16.28999089631971 0.0 0.0 0.0 34.24959146834617" Properties=species:S:1:pos:R:3:initial_magmoms:R:1 pbc="T T T"
Si      -1.37673306      -1.76145399       0.46689069       0.00000000
Si       0.32835753       0.96659973       2.10508382       0.00000000
Si      -1.18873017       1.01346606      -1.75036060       0.00000000
Si       2.05936551      -0.98205894      -0.56234436       0.00000000
Si       2.91191895       1.21135698      -0.04555198       0.00000000
Si       1.62458541       2.89163790      -1.19394143       0.00000000
Si      -0.72565434       3.28810392      -1.34285873       0.00000000
Si      -0.82489302      -0.40772241       3.56267875       0.00000000
Si       2.62068633       1.18685682       2.30208758       0.00000000
Si      -1.04827779      -3.31187103      -1.25535098       0.00000000
