10
Lattice="16.28999089631971 0.0 0.0 0.0 16.28999089631971 0.0 0.0 0.0 34.24959146834617" Properties=species:S:1:pos:R:3:initial_magmoms:R:1 pbc="T T T"
Si       2.29232880       0.22025709       0.19700376       0.00000000
Si      -1.15325055      -1.37432214       1.45759493       0.00000000
Si      -0.32835753      -0.96659973      -2.10508382       0.00000000
Si      -0.69338385       2.22013152       0.42743514       0.00000000
Si       2.58356142       0.24475725      -2.15063580       0.00000000
Si      -1.70509059      -2.72805372      -1.63819313       0.00000000
Si      -0.07043796      -0.89171460       3.50822186       0.00000000
Si      -2.11406733       2.69229717      -1.35419535       0.00000000
Si      -3.10106214      -0.19313424       1.99514257       0.00000000
Si       2.69166186       2.27947599       1.13886805       0.00000000
