10
Lattice="16.28999089631971 0.0 0.0 0.0 16.28999089631971 0.0 0.0 0.0 34.24959146834617" Properties=species:S:1:pos:R:3:initial_magmoms:R:1 pbc="T T T"
Si      -0.68450580       2.24969202      -0.30800675       0.00000000
Si      -2.13311034      -0.66539763      -0.89470258       0.00000000
Si       2.18444013      -0.27681597      -1.03861944       0.00000000
Si       0.15402195      -1.14852645       2.18752263       0.00000000
Si       2.64968253      -2.30480694       0.02818743       0.00000000
Si      -3.33288513      -0.53926416       1.13198388       0.00000000
Si       0.89733465       3.41549891       0.98971100       0.00000000
Si       2.50426170      -1.54499247       2.33643994       0.00000000
Si       0.78149646      -3.70625193      -0.49757834       0.00000000
Si      -0.30905388      -3.42316431       1.78002076       0.00000000
