10
Lattice="16.28999089631971 0.0 0.0 0.0 16.28999089631971 0.0 0.0 0.0 34.24959146834617" Properties=species:S:1:pos:R:3:initial_magmoms:R:1 pbc="T T T"
Si       1.56445902      -1.54740339       0.90425822       0.00000000
Si      -0.40187430       0.90256604       2.16693861       0.00000000
Si      -1.82058669      -1.60674786       0.19282531       0.00000000
Si       0.63068364       1.51903991      -1.85362318       0.00000000
Si       0.67890204      -1.11588129       3.13349687       0.00000000
Si       2.43683739       2.70370736      -0.81106503       0.00000000
Si      -3.24127017      -1.13458221      -1.58880519       0.00000000
Si       1.16512596      -3.60662229      -0.03760607       0.00000000
Si      -1.48471947       2.54114945      -2.46658846       0.00000000
Si       1.38536676       0.12292434      -3.65395396       0.00000000
