10
Lattice="16.28999089631971 0.0 0.0 0.0 16.28999089631971 0.0 0.0 0.0 34.24959146834617" Properties=species:S:1:pos:R:3:initial_magmoms:R:1 pbc="T T T"
Si       1.35653991       1.35712153      -1.35806556       0.00000000
Si      -1.35843939      -1.35805161      -1.35799706       0.00000000
Si       1.35884664      -1.36270610       1.35655858       0.00000000
Si      -1.36177884       1.36301851       1.35919580       0.00000000
Si       0.02103039      -2.71852963       2.70089004       0.00000000
Si       2.71196802      -2.71475035      -0.00140423       0.00000000
Si       2.71354652      -0.00034535      -2.71541188       0.00000000
Si      -0.00092853       2.71422514      -2.71520638       0.00000000
Si       2.71436265       2.71533286      -0.00147273       0.00000000
Si      -0.00154755      -2.71530421      -2.71510363       0.00000000
