10
Lattice="16.28999089631971 0.0 0.0 0.0 16.28999089631971 0.0 0.0 0.0 34.24959146834617" Properties=species:S:1:pos:R:3:initial_magmoms:R:1 pbc="T T T"
Si      -0.52606926       2.22622398       0.15230802       0.00000000
Si       1.61495869      -0.35302059       1.61610213       0.00000000
Si      -1.80819000      -1.44477639       0.45747205       0.00000000
Si       0.52934355      -0.07622091      -2.30506729       0.00000000
Si      -0.32653305      -3.13880770       1.17616588       0.00000000
Si      -2.42678646      -1.57047003      -1.81248939       0.00000000
Si       0.36606888       0.57746421       3.51609927       0.00000000
Si      -2.65652433       2.31930504      -0.78575457       0.00000000
Si       1.97111348      -2.63897674       1.84807474       0.00000000
Si      -0.57627504      -1.93733712      -3.19216646       0.00000000
