10
Lattice="16.28999089631971 0.0 0.0 0.0 16.28999089631971 0.0 0.0 0.0 34.24959146834617" Properties=species:S:1:pos:R:3:initial_magmoms:R:1 pbc="T T T"
Si      -1.35746199      -1.35459495      -1.35748332       0.00000000
Si      -1.35733167       1.35747828       1.35707232       0.00000000
Si       1.35733167      -1.35741312       1.35717507       0.00000000
Si       1.35809730       1.35674523      -1.35833956       0.00000000
Si      -2.71324611      -0.00011403       2.71404189       0.00000000
Si      -0.00032580      -2.71415835       2.71393914       0.00000000
Si      -2.71616202       0.00013032      -2.71308290       0.00000000
Si       2.71552671      -0.00087966       2.71390490       0.00000000
Si      -2.71521720      -2.71435383      -0.00023975       0.00000000
Si      -2.71495656       2.71484253      -0.00051374       0.00000000
