10
Lattice="16.28999089631971 0.0 0.0 0.0 16.28999089631971 0.0 0.0 0.0 34.24959146834617" Properties=species:S:1:pos:R:3:initial_magmoms:R:1 pbc="T T T"
Si      -1.37283975       1.42314327       1.26220090       0.00000000
Si       1.56475224      -1.20418938       1.33898853       0.00000000
Si      -1.57796343      -1.41499827      -1.11372884       0.00000000
Si       1.49915241       1.94872383      -0.62532939       0.00000000
Si      -0.64218438      -2.51581131       1.60524500       0.00000000
Si       1.12143618      -1.13463108      -2.80483761       0.00000000
Si      -2.47454874       1.18403865      -1.87913914       0.00000000
Si       0.31835547       2.01174984       2.71763810       0.00000000
Si       2.29513461       2.11621761       1.58808594       0.00000000
Si       2.42270323       0.77139666      -2.41521404       0.00000000
