10
Lattice="16.28999089631971 0.0 0.0 0.0 16.28999089631971 0.0 0.0 0.0 34.24959146834617" Properties=species:S:1:pos:R:3:initial_magmoms:R:1 pbc="T T T"
Si       1.13588282      -1.70846262      -1.09369282       0.00000000
Si       1.89166715       1.35021294       0.29074494       0.00000000
Si      -1.56475224       1.20418938      -1.33898853       0.00000000
Si      -0.96754455      -0.57524877       2.16077368       0.00000000
Si      -2.20693662      -1.31162193       0.26625647       0.00000000
Si       0.73038237       3.32040699       0.24909742       0.00000000
Si       2.63783060       0.33073587       2.28297629       0.00000000
Si      -0.22517667      -1.94193090      -2.96742051       0.00000000
Si      -1.33918461       1.55593935       2.96855075       0.00000000
Si      -1.24639677       3.21593922       1.37864958       0.00000000
