10
Lattice="16.28999089631971 0.0 0.0 0.0 16.28999089631971 0.0 0.0 0.0 34.24959146834617" Properties=species:S:1:pos:R:3:initial_magmoms:R:1 pbc="T T T"
Si      -0.64409031      -0.50241618      -2.24036978       0.00000000
Si       0.59689818      -1.95234021       1.25476873       0.00000000
Si       0.64308033       2.26735623       0.56076887       0.00000000
Si      -2.14231419      -0.34129179       1.27007831       0.00000000
Si       2.39686173      -0.50277456      -0.72698223       0.00000000
Si      -1.01442717      -1.54730565       2.96012535       0.00000000
Si       2.48964957       1.15722531      -2.31688341       0.00000000
Si      -1.49975514       3.21989769       0.71365914       0.00000000
Si      -2.74186764       0.53339976      -2.31020473       0.00000000
Si      -0.13300785      -3.68768133      -0.19268831       0.00000000
