10
Lattice="16.28999089631971 0.0 0.0 0.0 16.28999089631971 0.0 0.0 0.0 34.24959146834617" Properties=species:S:1:pos:R:3:initial_magmoms:R:1 pbc="T T T"
Si      -1.35778779      -1.35715248      -1.35779156       0.00000000
Si       1.35770634       1.35754582      -1.35762031       0.00000000
Si       1.35821133      -1.35721764       1.36104528       0.00000000
Si      -1.36179513       1.35930722       1.36327150       0.00000000
Si       2.71459818       0.00029322      -2.71472689       0.00000000
Si       0.00017919      -2.71441899      -2.71493238       0.00000000
Si       0.00022806       2.71497515      -2.71530913       0.00000000
Si      -2.71520091       0.00052128      -2.71558313       0.00000000
Si       2.71586880      -2.71492398      -0.00061649       0.00000000
Si      -2.71487511      -2.71645524       0.00027400       0.00000000
