10
Lattice="16.28999089631971 0.0 0.0 0.0 16.28999089631971 0.0 0.0 0.0 34.24959146834617" Properties=species:S:1:pos:R:3:initial_magmoms:R:1 pbc="T T T"
Si       1.35710361      -1.35680834      -1.35724357       0.00000000
Si       1.35713619       1.35724968       1.35772306       0.00000000
Si      -1.35965951      -1.35635222       1.35676407       0.00000000
Si      -1.35808101       1.35805278      -1.35724357       0.00000000
Si       2.71347417       0.00095366      -2.71373365       0.00000000
Si      -2.71278089      -0.00430798       2.71472689       0.00000000
Si       2.71471221      -2.71381421       0.00065074       0.00000000
Si      -2.71506334      -2.71440065       0.00006850       0.00000000
Si       0.00050499       2.71604093      -2.71366515       0.00000000
Si       2.71495656       2.71506353       0.00027400       0.00000000
