10
Lattice="16.28999089631971 0.0 0.0 0.0 16.28999089631971 0.0 0.0 0.0 34.24959146834617" Properties=species:S:1:pos:R:3:initial_magmoms:R:1 pbc="T T T"
Si      -0.73899585       2.13185601      -0.47219938       0.00000000
Si       1.70745264       0.15923475       1.59753884       0.00000000
Si       0.87469155      -0.86130117      -2.00456121       0.00000000
Si      -2.01699848      -0.80252685       1.07807499       0.00000000
Si      -0.56594718       2.81650842       1.90451810       0.00000000
Si       0.32980734       1.03267197       3.36810671       0.00000000
Si       0.76134573      -3.16154691      -1.56513871       0.00000000
Si      -2.83039469       1.74871521      -1.46584908       0.00000000
Si       3.55131774       1.13415867      -0.24139126       0.00000000
Si      -3.77767448      -0.06996555      -0.28040156       0.00000000
