10
Lattice="16.28999089631971 0.0 0.0 0.0 16.28999089631971 0.0 0.0 0.0 34.24959146834617" Properties=species:S:1:pos:R:3:initial_magmoms:R:1 pbc="T T T"
Si       1.19900997       1.24335054       1.57295245       0.00000000
Si       1.73891596      -0.86359806      -1.32881639       0.00000000
Si      -1.37850853      -1.36883241       1.57825429       0.00000000
Si       0.94746957       1.86846300      -1.94387090       0.00000000
Si      -1.59720178       2.25787545      -1.93931570       0.00000000
Si       2.11829377       3.04122897       0.15323276       0.00000000
Si       2.63467048      -2.64743451       0.13477222       0.00000000
Si      -0.11100590       2.56347585       3.03947625       0.00000000
Si       2.59598173      -0.11932425       3.02756424       0.00000000
Si      -3.10668205      -2.47503744       0.43436970       0.00000000
