10
Lattice="16.28999089631971 0.0 0.0 0.0 16.28999089631971 0.0 0.0 0.0 34.24959146834617" Properties=species:S:1:pos:R:3:initial_magmoms:R:1 pbc="T T T"
Si      -1.19900997      -1.24335054      -1.57295245       0.00000000
Si      -1.31001587       1.32012531       1.46652380       0.00000000
Si       1.39697176      -1.36267479       1.45461179       0.00000000
Si       0.91928380       1.79787843      -1.41971969       0.00000000
Si      -0.25154041       0.62511246      -3.51682335       0.00000000
Si       0.53990599      -2.10694860      -2.90176884       0.00000000
Si      -2.57751850      -2.61218295       0.00530184       0.00000000
Si      -2.65196380       2.65891896       0.09578246       0.00000000
Si       2.69404672       2.65168620       0.04030837       0.00000000
Si      -0.86937775       3.58073748      -1.17850170       0.00000000
