10
Lattice="16.28999089631971 0.0 0.0 0.0 16.28999089631971 0.0 0.0 0.0 34.24959146834617" Properties=species:S:1:pos:R:3:initial_magmoms:R:1 pbc="T T T"
Si       1.35540383       1.35804843       1.35669558       0.00000000
Si       1.35694975      -1.35747828      -1.35707232       0.00000000
Si      -1.35684112      -1.35772263       1.35710657       0.00000000
Si      -1.35811174       1.35749457      -1.35700382       0.00000000
Si       0.00228245       2.71009268       2.71465839       0.00000000
Si      -0.00182263      -2.71352304       2.71280891       0.00000000
Si      -2.71407505      -0.00061902      -2.71315140       0.00000000
Si      -0.00084027      -2.71368594      -2.71404189       0.00000000
Si      -0.00178484       2.71532212      -2.71390490       0.00000000
Si       2.71506334       2.71440065      -0.00006850       0.00000000
