10
Lattice="16.28999089631971 0.0 0.0 0.0 16.28999089631971 0.0 0.0 0.0 34.24959146834617" Properties=species:S:1:pos:R:3:initial_magmoms:R:1 pbc="T T T"
Si       1.35812988      -1.35498591      -1.35662708       0.00000000
Si      -1.35803214      -1.35602847       1.35796281       0.00000000
Si       1.35718506       1.35904212       1.35772306       0.00000000
Si      -1.35804680       1.35953082      -1.36111378       0.00000000
Si      -0.00931788      -2.69602758      -2.72734444       0.00000000
Si       2.71384884      -2.71339272       0.00116449       0.00000000
Si      -2.71582216      -2.71223613       0.00099324       0.00000000
Si      -0.00037467      -2.71363707       2.71534338       0.00000000
Si      -2.71498189       0.00144981       2.71503513       0.00000000
Si       2.71355562       2.71680412       0.00123299       0.00000000
