10
Lattice="16.28999089631971 0.0 0.0 0.0 16.28999089631971 0.0 0.0 0.0 34.24959146834617" Properties=species:S:1:pos:R:3:initial_magmoms:R:1 pbc="T T T"
Si      -1.12453128       1.51356582       1.36169602       0.00000000
Si      -1.37472939      -1.33690401      -1.36375100       0.00000000
Si       1.34089506       1.37242708      -1.36847744       0.00000000
Si       1.40271561      -1.37961639       1.59877182       0.00000000
Si       2.21227974       0.50083605       2.82216791       0.00000000
Si      -2.61457921       0.16047279       2.55252073       0.00000000
Si       0.58279104       2.40698501       2.89042739       0.00000000
Si       2.70239697      -2.69477325       0.01383684       0.00000000
Si       2.69677692       0.01967832      -2.72548126       0.00000000
Si      -0.01816335      -2.69752626      -2.72524152       0.00000000
