10
Lattice="10.86 0.0 0.0 0.0 10.86 0.0 0.0 0.0 10.86" Properties=species:S:1:pos:R:3:initial_magmoms:R:1 pbc="T T T"
Si      -1.22279256      -1.12748520       1.44834390       0.00000000
Si      -1.22279256       1.58751480      -1.26665610       0.00000000
Si       1.49220744       1.58751480       1.44834390       0.00000000
Si      -2.43793968       0.00956766      -2.60851770       0.00000000
Si      -2.54824470      -2.51542578      -0.19102740       0.00000000
Si       2.68502640       0.23415246      -2.59353090       0.00000000
Si       2.86007874      -2.42421264       0.06565956       0.00000000
Si       0.13470744      -2.48498520       2.80584390       0.00000000
Si      -1.18352280      -2.90124900      -2.15883768       0.00000000
Si      -2.58029256       0.23001480       2.80584390       0.00000000
