10
Lattice="16.28999089631971 0.0 0.0 0.0 16.28999089631971 0.0 0.0 0.0 34.433804113860816" Properties=species:S:1:pos:R:3:initial_magmoms:R:1 pbc="T T T"
Si       1.35786924       1.35833839      -1.35493652       0.00000000
Si       1.35707103      -1.35706411       1.35837990       0.00000000
Si      -1.35726651      -1.35917760      -1.35631387       0.00000000
Si      -1.35871632       1.35729583       1.35793226       0.00000000
Si       0.00184077       2.70640105      -2.71514141       0.00000000
Si      -0.00382815      -2.70996597      -2.71173246       0.00000000
Si       2.71015101       0.00108491      -2.71228340       0.00000000
Si      -2.71360449      -0.00134230       2.71417726       0.00000000
Si       2.71432125      -2.71410363       0.00034434       0.00000000
Si       2.71511946       2.71436686       0.00099858       0.00000000
