10
Lattice="16.28999089631971 0.0 0.0 0.0 16.28999089631971 0.0 0.0 0.0 34.433804113860816" Properties=species:S:1:pos:R:3:initial_magmoms:R:1 pbc="T T T"
Si       1.33822350       1.34372952      -1.38620243       0.00000000
Si      -1.37458278      -1.36987497      -1.38045198       0.00000000
Si      -1.31693247       1.41610599       1.48988267       0.00000000
Si       1.38460113      -1.41261993       1.43089753       0.00000000
Si      -2.13096006      -0.52691634       2.78628168       0.00000000
Si      -0.41142024      -2.40647283       2.68731888       0.00000000
Si       2.69731449       2.69562033      -0.00020660       0.00000000
Si      -2.73465117       2.68115481      -0.01790559       0.00000000
Si       2.69096139      -2.74083811      -0.02647961       0.00000000
Si       2.69793351      -0.01062108      -2.74482336       0.00000000
