10
Lattice="16.28999089631971 0.0 0.0 0.0 16.28999089631971 0.0 0.0 0.0 34.433804113860816" Properties=species:S:1:pos:R:3:initial_magmoms:R:1 pbc="T T T"
Si       0.15641658       2.10861995       0.97427060       0.00000000
Si      -1.40497992      -0.88724462       1.63254200       0.00000000
Si      -1.55292570       0.28690600      -1.72093362       0.00000000
Si       1.57017681      -1.64139410      -0.64212194       0.00000000
Si       2.74986603      -1.28777078       1.60781851       0.00000000
Si       2.55318057      -0.71340752      -2.60178526       0.00000000
Si      -2.00640672      -1.94666870      -2.48309187       0.00000000
Si      -3.30441510       0.69774305       1.60919587       0.00000000
Si      -0.39377817       1.35743918      -3.48618358       0.00000000
Si      -3.52648689       1.17279203      -0.72910178       0.00000000
