10
Lattice="16.28999089631971 0.0 0.0 0.0 16.28999089631971 0.0 0.0 0.0 34.433804113860816" Properties=species:S:1:pos:R:3:initial_magmoms:R:1 pbc="T T T"
Si       1.09183725      -1.41721371      -1.51285003       0.00000000
Si      -1.37699370      -1.18048743       1.54627292       0.00000000
Si       1.13402835       1.42933347       1.57176083       0.00000000
Si       1.67593149       1.07518887      -1.40731036       0.00000000
Si      -2.50637940      -1.46955348      -1.84276049       0.00000000
Si       1.93070709       3.06307386      -0.01597729       0.00000000
Si      -0.49085028      -1.91045862      -3.07084280       0.00000000
Si      -2.45053728      -2.88616446       0.23815125       0.00000000
Si      -0.09029547      -2.58206274       2.88893377       0.00000000
Si       2.61013041       0.13488120       2.88847925       0.00000000
