10
Lattice="16.28999089631971 0.0 0.0 0.0 16.28999089631971 0.0 0.0 0.0 34.433804113860816" Properties=species:S:1:pos:R:3:initial_magmoms:R:1 pbc="T T T"
Si       1.35545832       1.35668007      -1.35751905       0.00000000
Si      -1.35711990       1.35711990       1.35731245       0.00000000
Si      -1.35744570      -1.35767376      -1.35669264       0.00000000
Si       1.35742941      -1.35726651       1.35793226       0.00000000
Si      -0.00431685      -2.71024875      -2.71583008       0.00000000
Si      -2.71149005       0.00089595      -2.71748291       0.00000000
Si      -2.71443691       2.71472850       0.00030990       0.00000000
Si      -0.00167787       2.71687878      -2.71231783       0.00000000
Si      -2.71474968      -0.00026064       2.71448716       0.00000000
Si       0.00102627      -2.71484253       2.71445273       0.00000000
