10
Lattice="16.28999089631971 0.0 0.0 0.0 16.28999089631971 0.0 0.0 0.0 34.433804113860816" Properties=species:S:1:pos:R:3:initial_magmoms:R:1 pbc="T T T"
Si       1.35855342      -1.35630540       1.35707141       0.00000000
Si       1.35692442       1.35695700      -1.35879310       0.00000000
Si      -1.35915615      -1.35764118      -1.35820773       0.00000000
Si      -1.36344042       1.35692442       1.35817329       0.00000000
Si       2.71228500      -0.01798416       2.71331641       0.00000000
Si      -2.70554094       0.00395847       2.72178713       0.00000000
Si       2.71332756      -2.71586880      -0.00206603       0.00000000
Si       2.71321353       2.71629234      -0.00416649       0.00000000
Si      -2.71547784       2.71428867      -0.00051651       0.00000000
Si       2.71391400      -0.00092853      -2.71610555       0.00000000
