10
Lattice="16.28999089631971 0.0 0.0 0.0 16.28999089631971 0.0 0.0 0.0 34.433804113860816" Properties=species:S:1:pos:R:3:initial_magmoms:R:1 pbc="T T T"
Si      -1.34210052      -1.35296595       1.36361384       0.00000000
Si      -1.35203742       1.35736425      -1.35868980       0.00000000
Si       1.36344042      -1.35692442      -1.35817329       0.00000000
Si       1.37505519       1.37380086       1.37156805       0.00000000
Si      -2.58963759       0.05383845       2.77209495       0.00000000
Si      -2.70782154       2.71006956      -0.00075754       0.00000000
Si      -2.71000440      -2.71406061       0.00182499       0.00000000
Si      -2.71026504      -0.00017919      -2.71700083       0.00000000
Si       0.00428427      -2.71456560      -2.71638102       0.00000000
Si       0.00456120       2.71492398      -2.71703527       0.00000000
