10
Lattice="16.28999089631971 0.0 0.0 0.0 16.28999089631971 0.0 0.0 0.0 34.433804113860816" Properties=species:S:1:pos:R:3:initial_magmoms:R:1 pbc="T T T"
Si       1.98035901       1.17317322      -0.33514440       0.00000000
Si      -0.18803547      -0.20417886       2.38168426       0.00000000
Si       0.35895015      -2.10344625      -1.09478898       0.00000000
Si      -1.75115871       0.73006893      -1.53550748       0.00000000
Si       0.86390757      -1.00152549      -3.14150101       0.00000000
Si       3.44585628      -0.36284346       0.76587710       0.00000000
Si       2.02846338       1.07531919      -2.70983860       0.00000000
Si      -2.36104002       0.60445674       2.69158867       0.00000000
Si      -1.71556506      -3.26001996      -0.76401767       0.00000000
Si      -3.46069158      -0.88855434       1.28589670       0.00000000
