10
Lattice="16.28999089631971 0.0 0.0 0.0 16.28999089631971 0.0 0.0 0.0 34.433804113860816" Properties=species:S:1:pos:R:3:initial_magmoms:R:1 pbc="T T T"
Si      -0.79667874      -1.63374039       1.58773813       0.00000000
Si      -0.25477560      -1.98788499      -1.39133307       0.00000000
Si       1.90174347       1.02767094       1.41144039       0.00000000
Si      -2.03387166       1.16352954      -1.26909299       0.00000000
Si      -2.06474121      -0.19704384       2.92282698       0.00000000
Si      -1.93070709      -3.06307386       0.01597729       0.00000000
Si       0.66521844       2.49771312       2.90540347       0.00000000
Si      -3.41536140       1.26032472       1.57721515       0.00000000
Si      -2.60056818       3.00462534       0.21211702       0.00000000
Si       2.27452383       0.70211529      -3.41507773       0.00000000
