10
Lattice="16.28999089631971 0.0 0.0 0.0 16.28999089631971 0.0 0.0 0.0 34.433804113860816" Properties=species:S:1:pos:R:3:initial_magmoms:R:1 pbc="T T T"
Si      -1.25970570      -2.06399187       0.24830230       0.00000000
Si       1.31787729       0.82688040       1.90894230       0.00000000
Si      -1.52767620       1.57732812      -1.22326157       0.00000000
Si       2.33321670      -0.79415379      -0.58389434       0.00000000
Si       0.37395324      -3.58368597      -0.52019177       0.00000000
Si       3.08177478      -0.90399726       1.92223376       0.00000000
Si      -1.06264557       0.85442679      -3.51765609       0.00000000
Si       2.40979599      -2.92172553       0.51154888       0.00000000
Si       2.35638108       2.86984188       1.23923887       0.00000000
Si       2.46146787      -1.60319664      -2.76934024       0.00000000
