10
Lattice="16.28999089631971 0.0 0.0 0.0 16.28999089631971 0.0 0.0 0.0 34.433804113860816" Properties=species:S:1:pos:R:3:initial_magmoms:R:1 pbc="T T T"
Si       1.35707103      -1.35742941      -1.35734688       0.00000000
Si      -1.35659862      -1.35755973       1.35834546       0.00000000
Si      -1.35767376       1.35760860      -1.35741575       0.00000000
Si       1.35638685       1.35759231       1.36027376       0.00000000
Si       0.00081450       2.71328397      -2.71462490       0.00000000
Si      -2.71238274      -0.00485442       2.71627772       0.00000000
Si      -2.71611315      -0.00249237      -2.71345415       0.00000000
Si      -2.71482624      -2.71510317       0.00003443       0.00000000
Si       2.71495656       0.00065160      -2.71500367       0.00000000
Si      -2.71438641       2.71571600      -0.00006887       0.00000000
