10
Lattice="16.28999089631971 0.0 0.0 0.0 16.28999089631971 0.0 0.0 0.0 34.433804113860816" Properties=species:S:1:pos:R:3:initial_magmoms:R:1 pbc="T T T"
Si      -1.57017681       1.64139410       0.64212194       0.00000000
Si       0.98300376       0.92798658      -1.95966332       0.00000000
Si      -0.65515122      -2.36527542      -0.47863014       0.00000000
Si       1.17968922       0.35362332       2.24994045       0.00000000
Si       2.80973178      -0.44522199      -2.30672183       0.00000000
Si      -2.97515673       0.75414948       2.27466394       0.00000000
Si      -3.12310251       1.92830010      -1.07881169       0.00000000
Si      -0.65177919       1.17127611      -3.63238959       0.00000000
Si       1.66351851       3.12408710      -1.58481672       0.00000000
Si       3.22890606      -1.07276166       1.98387030       0.00000000
