10
Lattice="16.28999089631971 0.0 0.0 0.0 16.28999089631971 0.0 0.0 0.0 34.433804113860816" Properties=species:S:1:pos:R:3:initial_magmoms:R:1 pbc="T T T"
Si       1.25033895       1.98514175       0.15402249       0.00000000
Si      -1.29560886       0.18029120      -1.98875990       0.00000000
Si       1.68414165      -1.66954322       0.51764367       0.00000000
Si      -1.09217934      -0.99904127       1.93948510       0.00000000
Si       2.20968963       1.27857929       2.32703778       0.00000000
Si       0.47750877       1.20009407      -3.32530876       0.00000000
Si       0.62094222      -2.53073036       2.55667695       0.00000000
Si       2.30834187       2.05325024      -1.97884296       0.00000000
Si       2.20097448      -2.83437596      -1.47879498       0.00000000
Si       3.49839153      -0.63268079       1.69559033       0.00000000
