10
Lattice="16.28999089631971 0.0 0.0 0.0 16.28999089631971 0.0 0.0 0.0 34.433804113860816" Properties=species:S:1:pos:R:3:initial_magmoms:R:1 pbc="T T T"
Si       2.25859221       0.66147174       0.34182456       0.00000000
Si       0.42562512      -1.40866309      -1.88029336       0.00000000
Si      -1.42167717       1.94445585      -0.60193767       0.00000000
Si      -0.43406334      -1.11867177       2.19147182       0.00000000
Si       2.07764289       2.68887627       1.42552585       0.00000000
Si       1.46774529      -0.44948345       3.39751648       0.00000000
Si       2.13874668      -2.94035219      -1.26310151       0.00000000
Si       3.30845013      -0.63604142       1.95553126       0.00000000
Si      -2.67256998       1.13397948      -2.63036533       0.00000000
Si      -1.41915222      -2.82407417      -2.31481378       0.00000000
