10
Lattice="16.28999089631971 0.0 0.0 0.0 16.28999089631971 0.0 0.0 0.0 34.433804113860816" Properties=species:S:1:pos:R:3:initial_magmoms:R:1 pbc="T T T"
Si      -1.04985792       1.29751316      -1.61370670       0.00000000
Si      -1.84070484       0.18655797       1.44198522       0.00000000
Si       1.92891519       1.29765977       0.79428500       0.00000000
Si      -0.14713128      -2.25364887      -1.01469591       0.00000000
Si       3.30170607      -0.65956255       0.92478919       0.00000000
Si      -1.23080724       3.32491769      -0.53000541       0.00000000
Si      -1.09753875      -0.92818465       3.38429389       0.00000000
Si      -1.26644976      -3.39502401       0.71474287       0.00000000
Si      -3.74251347      -0.48263035       0.23594056       0.00000000
Si       0.41904396       1.50499889      -3.44827194       0.00000000
