10
Lattice="16.28999089631971 0.0 0.0 0.0 16.28999089631971 0.0 0.0 0.0 34.433804113860816" Properties=species:S:1:pos:R:3:initial_magmoms:R:1 pbc="T T T"
Si      -0.75908142       2.20349943      -0.29943653       0.00000000
Si       1.97356119      -0.88588604      -0.99183185       0.00000000
Si      -1.83330496      -1.18948114      -0.97575125       0.00000000
Si       0.22207180      -0.47504898       2.33829764       0.00000000
Si      -1.90696834      -1.47223318       2.68904057       0.00000000
Si      -0.65992256      -2.57245883      -2.48591544       0.00000000
Si       1.66737435       1.37673306       2.93145468       0.00000000
Si       2.12150697      -2.06003666       2.36164377       0.00000000
Si       3.52648689      -1.17279203       0.72910178       0.00000000
Si      -0.83656806       3.23231067       1.78938806       0.00000000
