10
Lattice="16.28999089631971 0.0 0.0 0.0 16.28999089631971 0.0 0.0 0.0 34.433804113860816" Properties=species:S:1:pos:R:3:initial_magmoms:R:1 pbc="T T T"
Si       0.41526468       0.93732660       2.06007235       0.00000000
Si       0.18094932      -2.02740453      -1.08370129       0.00000000
Si      -0.83144160       1.75703940      -1.25311570       0.00000000
Si      -1.16206344      -0.87188967       2.34394479       0.00000000
Si       1.34122086       2.83175586      -1.46591673       0.00000000
Si       1.23080724      -3.32491769       0.53000541       0.00000000
Si      -2.07764289      -2.68887627      -1.42552585       0.00000000
Si      -2.08743318       3.08063448       0.19021244       0.00000000
Si       3.06690201       2.13982182       0.12706081       0.00000000
Si      -0.60989760      -3.13835972       1.97199063       0.00000000
