10
Lattice="16.28999089631971 0.0 0.0 0.0 16.28999089631971 0.0 0.0 0.0 34.433804113860816" Properties=species:S:1:pos:R:3:initial_magmoms:R:1 pbc="T T T"
Si       0.74176515      -1.63616760       1.53671267       0.00000000
Si       0.36139365      -1.70241903      -1.65637020       0.00000000
Si       2.02880547       1.11974202       0.77648272       0.00000000
Si      -1.56287889       1.93411170       0.63117198       0.00000000
Si       1.90814544      -2.84830650      -0.16449037       0.00000000
Si       2.57074119       1.51180974      -1.71511431       0.00000000
Si       1.68515163      -0.33912522      -2.99047426       0.00000000
Si      -2.96901540       1.42118847      -1.28586227       0.00000000
Si      -1.86417873       1.20990717       2.83400696       0.00000000
Si       0.75934206       3.25870047      -1.71769684       0.00000000
