10
Lattice="16.28999089631971 0.0 0.0 0.0 16.28999089631971 0.0 0.0 0.0 34.433804113860816" Properties=species:S:1:pos:R:3:initial_magmoms:R:1 pbc="T T T"
Si       2.01552912      -0.44090514      -1.22808231       0.00000000
Si      -1.44530256      -1.85178204      -0.59315704       0.00000000
Si       0.05584212      -1.41661098       2.08091174       0.00000000
Si      -0.24762429       2.45793294      -0.72917064       0.00000000
Si      -2.50394242       1.85557761      -1.14206662       0.00000000
Si       2.50637940       1.46955348       1.84276049       0.00000000
Si       0.45413262      -3.43676972      -0.56981091       0.00000000
Si       1.12938570       0.28906605       3.38903341       0.00000000
Si       3.59821665       0.05233977       0.32991046       0.00000000
Si      -1.66737435      -1.37673306      -2.93145468       0.00000000
