10
Lattice="16.28999089631971 0.0 0.0 0.0 16.28999089631971 0.0 0.0 0.0 34.433804113860816" Properties=species:S:1:pos:R:3:initial_magmoms:R:1 pbc="T T T"
Si       2.13245874      -0.75321702      -0.84793290       0.00000000
Si      -2.02880547      -1.11974202      -0.77648272       0.00000000
Si       0.15731253       1.63616760       1.86021844       0.00000000
Si       0.54193572       0.39206772      -2.49159702       0.00000000
Si      -1.28704032      -2.75590962       0.76022995       0.00000000
Si      -1.26946341       2.13895845      -2.49417956       0.00000000
Si       0.18215478      -0.00399105       3.57998131       0.00000000
Si       1.98316089      -3.02550912      -0.49515838       0.00000000
Si      -2.34124767       2.79259470      -0.52873136       0.00000000
Si      -3.59168436       0.81436968      -0.14531073       0.00000000
