10
Lattice="16.28999089631971 0.0 0.0 0.0 16.28999089631971 0.0 0.0 0.0 34.433804113860816" Properties=species:S:1:pos:R:3:initial_magmoms:R:1 pbc="T T T"
Si       0.84056400      -0.63069993       2.18152044       0.00000000
Si      -1.76389749       1.73087766      -0.01329146       0.00000000
Si      -0.67197879      -2.01772827      -1.41068488       0.00000000
Si       1.51923798       0.73140471      -1.95897464       0.00000000
Si      -0.74855808       0.10984347      -2.50612810       0.00000000
Si      -3.08177478       0.90399726      -1.92223376       0.00000000
Si      -0.72539370       3.77383914      -0.68299489       0.00000000
Si      -1.04475915      -1.69217262       3.41583325       0.00000000
Si       1.35612621      -3.20460138      -1.90580882       0.00000000
Si       1.78430886       1.19987253       3.46277688       0.00000000
