10
Lattice="16.28999089631971 0.0 0.0 0.0 16.28999089631971 0.0 0.0 0.0 34.433804113860816" Properties=species:S:1:pos:R:3:initial_magmoms:R:1 pbc="T T T"
Si      -1.35798327      -1.35503478       1.35517755       0.00000000
Si       1.35767376      -1.35694071      -1.35686481       0.00000000
Si       1.35721764       1.35646830       1.35779452       0.00000000
Si      -1.35767376       1.35887922      -1.35748462       0.00000000
Si      -2.70710478      -0.00987174       2.71276547       0.00000000
Si       2.70998811       0.00177561       2.71355745       0.00000000
Si      -0.00024435      -2.71428867      -2.71424613       0.00000000
Si      -2.71427238      -2.71437012       0.00055094       0.00000000
Si      -2.71511946       0.00117288      -2.71452160       0.00000000
Si       2.71539639      -2.71456560       0.00079198       0.00000000
