10
Lattice="16.28999089631971 0.0 0.0 0.0 16.28999089631971 0.0 0.0 0.0 34.433804113860816" Properties=species:S:1:pos:R:3:initial_magmoms:R:1 pbc="T T T"
Si       1.32748839       1.34915409      -1.37435719       0.00000000
Si      -1.38396582      -1.36702422      -1.36840014       0.00000000
Si      -1.18713375       1.41165882       1.50947551       0.00000000
Si       1.44215370      -1.32126561       1.40672499       0.00000000
Si      -0.42536448      -2.18944116       2.61552435       0.00000000
Si      -2.23676361      -0.44255043       2.61294182       0.00000000
Si       2.68566714       2.70889668       0.02028152       0.00000000
Si       2.68524360      -2.72658762      -0.01487541       0.00000000
Si       2.69013060      -0.00737937      -2.72881163       0.00000000
Si      -2.72631069       2.69456148       0.01205184       0.00000000
