10
Lattice="16.28999089631971 0.0 0.0 0.0 16.28999089631971 0.0 0.0 0.0 34.433804113860816" Properties=species:S:1:pos:R:3:initial_magmoms:R:1 pbc="T T T"
Si      -1.35663120      -1.35519982      -1.35703698       0.00000000
Si       1.35846113      -1.35461869       1.35862093       0.00000000
Si      -1.35356868       1.35780734       1.36127234       0.00000000
Si       1.35866035       1.35977843      -1.35693368       0.00000000
Si       2.70016265      -0.00161760       2.72220034       0.00000000
Si       2.71671329      -2.71005720       0.00117075       0.00000000
Si       0.00099369      -2.71253328      -2.71455603       0.00000000
Si      -2.71396287       0.00288333      -2.71424613       0.00000000
Si      -2.71423980      -2.71430889       0.00000000       0.00000000
Si       2.71348461       2.71751735       0.00048207       0.00000000
