10
Lattice="16.28999089631971 0.0 0.0 0.0 16.28999089631971 0.0 0.0 0.0 34.433804113860816" Properties=species:S:1:pos:R:3:initial_magmoms:R:1 pbc="T T T"
Si      -0.79273656      -0.92336607       2.02925408       0.00000000
Si       0.04237029       2.37232899       0.23263491       0.00000000
Si      -0.99585657      -1.08810684      -1.92998137       0.00000000
Si       2.27560453      -0.38480238      -0.77445112       0.00000000
Si      -0.37134684       0.77703300      -3.31070881       0.00000000
Si       0.37693431      -3.04532916      -1.79947717       0.00000000
Si      -0.45693450       0.94589514       3.41149662       0.00000000
Si       2.30143232      -2.69103144      -0.50786446       0.00000000
Si       1.95441134       0.31156254      -3.06120133       0.00000000
Si      -1.77386697       3.22947621      -0.93780518       0.00000000
