10
Lattice="16.28999089631971 0.0 0.0 0.0 16.28999089631971 0.0 0.0 0.0 34.433804113860816" Properties=species:S:1:pos:R:3:initial_magmoms:R:1 pbc="T T T"
Si      -1.35452979       1.35505107       1.35741575       0.00000000
Si       1.34276841       1.34965908      -1.37794864       0.00000000
Si       1.35802217      -1.35624024       1.35751905       0.00000000
Si      -1.34467434      -1.34294760      -1.38955284       0.00000000
Si      -2.71309950      -0.00021177       2.71507254       0.00000000
Si      -2.71430496       2.71497285      -0.00654243       0.00000000
Si       0.00159642       2.71490769       2.71534801       0.00000000
Si       0.00177561      -2.71529865       2.71527914       0.00000000
Si      -2.71497285      -2.71629234      -0.00165282       0.00000000
Si       2.71698045      -0.00019548       2.71541688       0.00000000
