10
Lattice="16.28999089631971 0.0 0.0 0.0 16.28999089631971 0.0 0.0 0.0 34.433804113860816" Properties=species:S:1:pos:R:3:initial_magmoms:R:1 pbc="T T T"
Si       1.35679410       1.35560493      -1.35810443       0.00000000
Si      -1.36184400       1.35684297       1.35600396       0.00000000
Si      -1.35839052      -1.35925389      -1.35810443       0.00000000
Si       1.35956340      -1.36130643       1.36065253       0.00000000
Si       0.00316026       2.70744687       2.71211123       0.00000000
Si      -0.00070047       2.71316466      -2.71545131       0.00000000
Si       2.71976211       0.01226637       2.70908105       0.00000000
Si       2.71650411       2.71256193      -0.00079198       0.00000000
Si      -2.71619460       2.71290402      -0.00113632       0.00000000
Si       2.71417464      -0.00192222      -2.71524471       0.00000000
