10
Lattice="16.28999089631971 0.0 0.0 0.0 16.28999089631971 0.0 0.0 0.0 34.433804113860816" Properties=species:S:1:pos:R:3:initial_magmoms:R:1 pbc="T T T"
Si       1.35358468       1.34293131      -1.35614170       0.00000000
Si      -1.49320656       1.19754306       1.36413035       0.00000000
Si      -1.36019871      -1.37357280      -1.34842852       0.00000000
Si       1.42494855      -1.24667370       1.40438349       0.00000000
Si      -0.37488177      -2.00026539       2.76283225       0.00000000
Si      -2.32699392      -0.61416558       2.66135577       0.00000000
Si      -0.17026308       2.52278343       2.77150957       0.00000000
Si       2.70613457       2.67903711       0.01694144       0.00000000
Si      -0.00325800       2.70029556      -2.70987303       0.00000000
Si      -2.71660185       2.69518050       0.00303018       0.00000000
