10
Lattice="16.28999089631971 0.0 0.0 0.0 16.28999089631971 0.0 0.0 0.0 34.433804113860816" Properties=species:S:1:pos:R:3:initial_magmoms:R:1 pbc="T T T"
Si       1.32294348       1.32524037       1.40737923       0.00000000
Si       1.49320656      -1.19754306      -1.36413035       0.00000000
Si      -1.22339529       1.49763744      -1.36110017       0.00000000
Si      -0.83378736      -1.81170864       1.29722543       0.00000000
Si      -0.18652050       1.33589403       3.26825191       0.00000000
Si      -2.29034142       0.39335463       2.82243720       0.00000000
Si       1.11832479      -3.19780845       1.39870190       0.00000000
Si       0.13300785      -2.57111586      -2.71255887       0.00000000
Si      -2.58839955       0.14703354      -2.71720743       0.00000000
Si      -2.66462046      -2.66486481      -0.04924037       0.00000000
