10
Lattice="16.28999089631971 0.0 0.0 0.0 16.28999089631971 0.0 0.0 0.0 34.433804113860816" Properties=species:S:1:pos:R:3:initial_magmoms:R:1 pbc="T T T"
Si      -1.81623726       0.85714722      -1.17044009       0.00000000
Si      -0.87573411       0.60048198       2.12422256       0.00000000
Si      -0.04237029      -2.37232899      -0.23263491       0.00000000
Si       2.09869350       0.91675233      -0.77031906       0.00000000
Si      -0.49930479      -1.42643385       3.17886170       0.00000000
Si      -1.13104728       0.70664391      -3.35984588       0.00000000
Si       1.99064356       3.05823573       0.16903564       0.00000000
Si       2.23323424      -2.75713137      -1.00708603       0.00000000
Si      -0.83510685      -3.29569506       1.79661917       0.00000000
Si      -0.41371713      -1.59529599      -3.54334372       0.00000000
