10
Lattice="16.28999089631971 0.0 0.0 0.0 16.28999089631971 0.0 0.0 0.0 34.433804113860816" Properties=species:S:1:pos:R:3:initial_magmoms:R:1 pbc="T T T"
Si      -1.46426642       1.26374562       1.32070929       0.00000000
Si      -1.35254989      -1.33610580      -1.37308314       0.00000000
Si       1.36112724       1.38033315      -1.36509449       0.00000000
Si       1.41771870      -1.26504882       1.50778826       0.00000000
Si       0.28121427       2.33052885       2.49039184       0.00000000
Si       2.15306559       0.73782297       2.65959965       0.00000000
Si      -2.70613457      -2.67903711      -0.01694144       0.00000000
Si       2.73465117      -2.68115481       0.01790559       0.00000000
Si       0.00072002      -2.69289990      -2.72616023       0.00000000
Si      -2.70939257       0.02125845      -2.72681447       0.00000000
