10
Lattice="16.28999089631971 0.0 0.0 0.0 16.28999089631971 0.0 0.0 0.0 34.433804113860816" Properties=species:S:1:pos:R:3:initial_magmoms:R:1 pbc="T T T"
Si      -1.35720135       1.31002551       1.46864733       0.00000000
Si      -1.82109168      -0.80692515      -1.36250993       0.00000000
Si       1.89570870       0.89210556      -1.21755045       0.00000000
Si       1.33501437      -1.43081586       1.46909153       0.00000000
Si       2.69708384       2.60641629       0.17940366       0.00000000
Si      -2.67675651      -2.65225635      -0.05115489       0.00000000
Si       3.58587602      -0.86946246      -0.96870781       0.00000000
Si      -2.72642472       2.70220149       0.02073949       0.00000000
Si       2.65686057      -2.81140965       0.01502003       0.00000000
Si      -0.00610875       2.64650598       2.84762554       0.00000000
