10
Lattice="16.28999089631971 0.0 0.0 0.0 16.28999089631971 0.0 0.0 0.0 34.433804113860816" Properties=species:S:1:pos:R:3:initial_magmoms:R:1 pbc="T T T"
Si       1.35692442      -1.35725022      -1.35755349       0.00000000
Si      -1.35772263       1.35762489      -1.35765679       0.00000000
Si      -1.35852084      -1.35816246       1.35796669       0.00000000
Si       1.35723393       1.35980775       1.35831103       0.00000000
Si      -0.00540828       2.71634121       2.71276547       0.00000000
Si       2.71487785       2.71469592      -0.00010330       0.00000000
Si       2.71495703      -2.71464705      -0.00075754       0.00000000
Si       0.00096111       2.71432125      -2.71562348       0.00000000
Si      -2.71539639       2.71456560      -0.00079198       0.00000000
Si      -2.71562445      -2.71456560      -0.00017217       0.00000000
