10
Lattice="16.28999089631971 0.0 0.0 0.0 16.28999089631971 0.0 0.0 0.0 34.433804113860816" Properties=species:S:1:pos:R:3:initial_magmoms:R:1 pbc="T T T"
Si       1.24308990      -1.40532201      -1.42160040       0.00000000
Si      -1.86751818      -0.86817555       1.20879937       0.00000000
Si      -1.44215370       1.32126561      -1.40672499       0.00000000
Si       1.54689840       0.98318295       1.57372903       0.00000000
Si      -0.27699516      -2.01346029       2.85246349       0.00000000
Si       2.54151693       2.48992650      -0.00606035       0.00000000
Si      -2.62928745       2.73292443       0.10275053       0.00000000
Si       2.49530220      -2.87640675      -0.08949351       0.00000000
Si       2.61115668      -0.04831614      -2.77571050       0.00000000
Si      -0.11466531       2.67041970      -2.78108218       0.00000000
