10
Lattice="16.28999089631971 0.0 0.0 0.0 16.28999089631971 0.0 0.0 0.0 34.433804113860816" Properties=species:S:1:pos:R:3:initial_magmoms:R:1 pbc="T T T"
Si       1.54768914       0.94187151      -1.41509240       0.00000000
Si      -0.00821016       1.70381997       1.62510429       0.00000000
Si      -1.90617435      -0.40246074      -1.33279557       0.00000000
Si       0.76201362      -1.84753035       1.29650232       0.00000000
Si      -1.47856185      -2.80528461       1.30239050       0.00000000
Si      -2.05547220      -2.67475284      -0.98002105       0.00000000
Si       3.25455371       1.48535478       0.15302391       0.00000000
Si      -0.08228079       2.59418250      -2.61153003       0.00000000
Si       3.49494524      -0.45844947       1.54752489       0.00000000
Si      -1.82265552       3.14994843       1.41130468       0.00000000
