10
Lattice="16.28999089631971 0.0 0.0 0.0 16.28999089631971 0.0 0.0 0.0 34.433804113860816" Properties=species:S:1:pos:R:3:initial_magmoms:R:1 pbc="T T T"
Si       0.73534689       2.00287179       1.15181139       0.00000000
Si      -1.41771870       1.26504882      -1.50778826       0.00000000
Si       1.31693247      -1.41610599      -1.48988267       0.00000000
Si      -0.81402759      -1.94302233       1.29639902       0.00000000
Si       2.65049703       2.70140328      -0.08370862       0.00000000
Si      -2.69890472      -2.66066199      -0.12034621       0.00000000
Si      -2.88198512       2.52879444      -0.18707896       0.00000000
Si      -1.13650443       3.59557767       0.98260358       0.00000000
Si      -0.05659146       2.64538197      -2.87288275       0.00000000
Si       2.70153360      -2.82872592      -0.05898514       0.00000000
