10
Lattice="16.28999089631971 0.0 0.0 0.0 16.28999089631971 0.0 0.0 0.0 34.433804113860816" Properties=species:S:1:pos:R:3:initial_magmoms:R:1 pbc="T T T"
Si       1.35277047      -1.35469269       1.35576293       0.00000000
Si      -1.35721764      -1.35646830      -1.35779452       0.00000000
Si      -1.35475785       1.36024758       1.35851763       0.00000000
Si       1.35760860       1.35910907      -1.35703698       0.00000000
Si       0.00400734       2.69612110       2.72316449       0.00000000
Si       2.71541268      -2.71122615       0.00130849       0.00000000
Si      -2.71520091      -2.71150308      -0.00261697       0.00000000
Si       0.00045612      -2.71340901      -2.71465933       0.00000000
Si       2.71423980       2.71430889       0.00000000       0.00000000
Si       2.71523349       0.00177561      -2.71455603       0.00000000
