10
Lattice="16.28999089631971 0.0 0.0 0.0 16.28999089631971 0.0 0.0 0.0 34.433804113860816" Properties=species:S:1:pos:R:3:initial_magmoms:R:1 pbc="T T T"
Si       1.35886293       1.35540327       1.35593510       0.00000000
Si      -1.35735773      -1.35551729       1.35855207       0.00000000
Si      -1.35758091       1.35629760      -1.35758792       0.00000000
Si       1.35671265      -1.35810740      -1.35734688       0.00000000
Si       2.70686043       0.00846070       2.70935652       0.00000000
Si       2.71375110       2.71404140      -0.00030990       0.00000000
Si      -0.00081450       2.71446494      -2.71500367       0.00000000
Si      -2.71528667      -0.00156180      -2.71428056       0.00000000
Si      -2.71541068       2.71431833       0.00044764       0.00000000
Si       2.71520091      -0.00243203      -2.71455603       0.00000000
