10
Lattice="16.28999089631971 0.0 0.0 0.0 16.28999089631971 0.0 0.0 0.0 34.433804113860816" Properties=species:S:1:pos:R:3:initial_magmoms:R:1 pbc="T T T"
Si       0.07748664      -1.02881124      -2.08882459       0.00000000
Si      -0.99746995       2.10178467      -0.33476563       0.00000000
Si       2.25631813       0.60235533       0.41289598       0.00000000
Si      -2.18391952       0.11634318       1.15628779       0.00000000
Si      -0.55529419      -0.32421987       2.90635243       0.00000000
Si       2.50394242      -1.85557761       1.14206662       0.00000000
Si       1.52333329       0.59891814      -3.08888612       0.00000000
Si      -2.26896961      -1.14919434      -2.48939326       0.00000000
Si      -3.50471272      -1.10587923      -0.46282502       0.00000000
Si       0.83656806      -3.23231067      -1.78938806       0.00000000
