10
Lattice="16.28999089631971 0.0 0.0 0.0 16.28999089631971 0.0 0.0 0.0 34.433804113860816" Properties=species:S:1:pos:R:3:initial_magmoms:R:1 pbc="T T T"
Si      -1.54768914      -0.94187151       1.41509240       0.00000000
Si       1.06391456      -1.14049548      -1.68997762       0.00000000
Si       1.70686457       0.54348327       1.56811632       0.00000000
Si      -1.62996993       1.65231099      -1.19643763       0.00000000
Si      -1.55589930       0.76194846       3.04019670       0.00000000
Si       0.47522328       2.06726616       2.88021715       0.00000000
Si       2.26419434       0.67720788      -2.77519399       0.00000000
Si      -0.68156613      -2.20727871      -2.85966016       0.00000000
Si      -3.45386349      -1.34433225       0.08229684       0.00000000
Si       1.94725610      -1.40032098       2.96261729       0.00000000
