10
Lattice="16.28999089631971 0.0 0.0 0.0 16.28999089631971 0.0 0.0 0.0 34.433804113860816" Properties=species:S:1:pos:R:3:initial_magmoms:R:1 pbc="T T T"
Si       1.35758091      -1.35629760       1.35758792       0.00000000
Si      -1.35770577      -1.35785939      -1.35669264       0.00000000
Si       1.35676641       1.35816735      -1.35741575       0.00000000
Si      -1.35782977       1.35802074       1.35803556       0.00000000
Si       0.00121198      -2.71137506      -2.71472820       0.00000000
Si       0.00022317      -2.71181489       2.71613999       0.00000000
Si       2.71429356      -2.71440500       0.00024104       0.00000000
Si      -2.71549643      -2.71429097       0.00041321       0.00000000
Si       2.71644384      -0.00089432       2.71352302       0.00000000
Si       2.71483113       2.71533612       0.00048207       0.00000000
