10
Lattice="16.28999089631971 0.0 0.0 0.0 16.28999089631971 0.0 0.0 0.0 34.433804113860816" Properties=species:S:1:pos:R:3:initial_magmoms:R:1 pbc="T T T"
Si      -1.23164129       1.52378289       1.31210084       0.00000000
Si      -1.70686457      -0.54348327      -1.56811632       0.00000000
Si       0.24039153      -1.94380425       1.39450098       0.00000000
Si       1.99197378       1.28707290      -0.48100608       0.00000000
Si       0.89534727      -0.51385176       3.15806368       0.00000000
Si      -3.25455371      -1.48535478      -0.15302391       0.00000000
Si      -3.26276387       0.21846519       1.47208038       0.00000000
Si      -1.03201874       0.69160824       3.50198870       0.00000000
Si      -0.64295001      -1.68397875      -3.25809393       0.00000000
Si       2.27234097       1.05876855      -2.85401302       0.00000000
