10
Lattice="16.28999089631971 0.0 0.0 0.0 16.28999089631971 0.0 0.0 0.0 34.433804113860816" Properties=species:S:1:pos:R:3:initial_magmoms:R:1 pbc="T T T"
Si      -2.01100213      -1.02726369       0.60069805       0.00000000
Si      -0.38439513       2.32873695      -0.18411765       0.00000000
Si       0.46651302      -1.02864834      -2.08255764       0.00000000
Si       1.75115871      -0.73006893       1.53550748       0.00000000
Si      -2.20813068       2.34085671       1.28073163       0.00000000
Si       2.61506628      -1.73159442      -1.60599352       0.00000000
Si       2.11010886      -2.83351518       0.44071851       0.00000000
Si      -1.70953287      -1.61862327       2.82140418       0.00000000
Si      -1.90295219      -3.16874709      -0.33865665       0.00000000
Si       1.80664245       3.27034782      -0.01187967       0.00000000
