10
Lattice="16.28999089631971 0.0 0.0 0.0 16.28999089631971 0.0 0.0 0.0 34.433804113860816" Properties=species:S:1:pos:R:3:initial_magmoms:R:1 pbc="T T T"
Si      -1.35825216       1.35543850       1.35745018       0.00000000
Si       1.35735773       1.35551729      -1.35855207       0.00000000
Si      -1.35789649      -1.36058967      -1.35827660       0.00000000
Si       1.35936140      -1.36505313       1.35779452       0.00000000
Si       2.70884129       0.01477503       2.71534801       0.00000000
Si      -2.71671329       2.71005720      -0.00117075       0.00000000
Si       2.71622066       2.71092057      -0.00261697       0.00000000
Si      -0.00022317       2.71181489      -2.71613999       0.00000000
Si      -0.01655064       2.70843960       2.72102959       0.00000000
Si       2.71407038      -0.00259011      -2.71589895       0.00000000
