10
Lattice="16.28999089631971 0.0 0.0 0.0 16.28999089631971 0.0 0.0 0.0 34.433804113860816" Properties=species:S:1:pos:R:3:initial_magmoms:R:1 pbc="T T T"
Si      -1.45841112       0.64195632       1.72744162       0.00000000
Si       0.99663849       2.18858986       0.24227638       0.00000000
Si       0.96844050      -2.15327736       0.70696083       0.00000000
Si      -1.22872212       1.54368927      -2.23262024       0.00000000
Si      -2.42561684      -2.12017608      -1.05601649       0.00000000
Si      -0.75061062       3.40993098      -0.81256936       0.00000000
Si      -3.07123841       0.01581759      -1.85491563       0.00000000
Si       2.14309611       2.41409722      -1.82196246       0.00000000
Si       0.79799823      -2.35688607      -2.84912341       0.00000000
Si       2.48440419      -2.63062323      -1.12006341       0.00000000
