10
Lattice="16.28999089631971 0.0 0.0 0.0 16.28999089631971 0.0 0.0 0.0 34.433804113860816" Properties=species:S:1:pos:R:3:initial_magmoms:R:1 pbc="T T T"
Si      -1.82373555       0.01211976       1.46484928       0.00000000
Si       0.38439513      -2.32873695       0.18411765       0.00000000
Si       2.19103758       0.94161087       0.17223798       0.00000000
Si      -1.26071568       0.77307453      -1.90890787       0.00000000
Si       3.13681869       0.05165559      -1.82747187       0.00000000
Si       1.73438001       3.15815859       0.63585498       0.00000000
Si      -0.92959211      -0.35686503       3.63245846       0.00000000
Si      -1.14142238      -0.89334360      -3.48921375       0.00000000
Si      -3.32220608      -1.70961921       0.66343647       0.00000000
Si      -1.62660700      -3.35600064       0.78481570       0.00000000
