10
Lattice="16.28999089631971 0.0 0.0 0.0 16.28999089631971 0.0 0.0 0.0 34.433804113860816" Properties=species:S:1:pos:R:3:initial_magmoms:R:1 pbc="T T T"
Si      -1.78398632      -1.60257762      -0.54109310       0.00000000
Si      -0.34533171       2.00103102      -1.43289469       0.00000000
Si      -1.20168072       1.50833997       1.62517316       0.00000000
Si       2.57610060      -0.05896980      -0.07055490       0.00000000
Si      -1.07988039      -3.70006173       0.23766225       0.00000000
Si       3.04113123      -0.78187113      -2.36494942       0.00000000
Si       3.23125182       2.30630562       0.40807524       0.00000000
Si      -2.67812976      -1.23359283      -2.70870228       0.00000000
Si       0.25609509       3.06045510       2.68273918       0.00000000
Si      -3.78624302      -1.33758819       0.74910783       0.00000000
